version 3
run Ping2-0-20241104-18:37:40-1584
attr configname Ping2
attr datetime 20241104-18:37:40
attr datetimef 20241104-183740
attr experiment Ping2
attr inifile omnetpp.ini
attr iterationvars ""
attr iterationvarsd ""
attr iterationvarsf ""
attr measurement ""
attr network lab7
attr processid 1584
attr repetition 0
attr replication #0
attr resultdir results
attr runnumber 0
attr seedset 0
config image-path ../inet4.5/images
config description "n hosts"
config network lab7
config num-rngs 3
config **.mobility.rng-0 1
config **.wlan[*].mac.rng-0 2
config **.constraintAreaMinX 0m
config **.constraintAreaMinY 0m
config **.constraintAreaMinZ 0m
config **.constraintAreaMaxX 600m
config **.constraintAreaMaxY 400m
config **.constraintAreaMaxZ 0m
config **.host*.mobility.typename MassMobility
config **.host*.mobility.initFromDisplayString false
config **.host*.mobility.changeInterval "truncnormal(2s, 0.5s)"
config **.host*.mobility.angleDelta "normal(0deg, 30deg)"
config **.host*.mobility.speed "truncnormal(20mps, 8mps)"
config **.host*.mobility.updateInterval 100ms
config *.host[0].numApps 0
config *.host[*].numApps 2
config *.host[*].app[*].typename PingApp
config *.host[*].app[*].destAddr "\"host[0]\""
config *.host[*].app[0].startTime uniform(1s,5s)
config *.host[*].app[1].startTime 5s+uniform(1s,5s)
config *.host[*].app[*].printPing true
config **.wlan[*].bitrate 2Mbps
config **.wlan[*].mac.dcf.channelAccess.cwMin 7
config **.wlan[*].radio.transmitter.power 2mW
config **.wlan[*].radio.receiver.sensitivity -85dBm
config **.wlan[*].radio.receiver.snirThreshold 4dB

par lab7.configurator typename "\"inet.networklayer.configurator.ipv4.Ipv4NetworkConfigurator\""
par lab7.configurator minLinkWeight 0.001
par lab7.configurator configureIsolatedNetworksSeparatly false
par lab7.configurator config "<config>...</config> at content:1"
par lab7.configurator assignAddresses true
par lab7.configurator assignUniqueAddresses true
par lab7.configurator assignDisjunctSubnetAddresses true
par lab7.configurator addStaticRoutes true
par lab7.configurator addDefaultRoutes true
par lab7.configurator addSubnetRoutes true
par lab7.configurator addDirectRoutes true
par lab7.configurator optimizeRoutes true
par lab7.configurator dumpTopology false
par lab7.configurator dumpLinks false
par lab7.configurator dumpAddresses false
par lab7.configurator dumpRoutes false
par lab7.configurator dumpConfig "\"\""
par lab7.radioMedium.propagation typename "\"inet.physicallayer.wireless.common.propagation.ConstantSpeedPropagation\""
par lab7.radioMedium.propagation propagationSpeed 2.99792e+08mps
attr unit mps
par lab7.radioMedium.propagation ignoreMovementDuringTransmission true
par lab7.radioMedium.propagation ignoreMovementDuringPropagation true
par lab7.radioMedium.propagation ignoreMovementDuringReception true
scalar lab7.radioMedium.propagation "Arrival computation count" 52
par lab7.radioMedium.analogModel typename "\"inet.physicallayer.wireless.common.analogmodel.packetlevel.ScalarAnalogModel\""
par lab7.radioMedium.analogModel ignorePartialInterference false
par lab7.radioMedium.backgroundNoise typename "\"inet.physicallayer.wireless.common.backgroundnoise.IsotropicScalarBackgroundNoise\""
par lab7.radioMedium.backgroundNoise power -110dBm
attr unit dBm
par lab7.radioMedium.backgroundNoise bandwidth "nan Hz"
attr unit Hz
par lab7.radioMedium.pathLoss typename "\"inet.physicallayer.wireless.common.pathloss.FreeSpacePathLoss\""
par lab7.radioMedium.pathLoss alpha 2
par lab7.radioMedium.pathLoss systemLoss 0dB
attr unit dB
par lab7.radioMedium.mediumLimitCache typename "\"inet.physicallayer.wireless.common.medium.MediumLimitCache\""
par lab7.radioMedium.mediumLimitCache centerFrequency 2.4e+09Hz
attr unit Hz
par lab7.radioMedium.mediumLimitCache maxSpeed "nan mps"
attr unit mps
par lab7.radioMedium.mediumLimitCache maxTransmissionPower "nan W"
attr unit W
par lab7.radioMedium.mediumLimitCache minInterferencePower -110dBm
attr unit dBm
par lab7.radioMedium.mediumLimitCache minReceptionPower -85dBm
attr unit dBm
par lab7.radioMedium.mediumLimitCache maxAntennaGain 0dB
attr unit dB
par lab7.radioMedium.mediumLimitCache minInterferenceTime 1e-12s
attr unit s
par lab7.radioMedium.mediumLimitCache maxTransmissionDuration 0.01s
attr unit s
par lab7.radioMedium.mediumLimitCache maxCommunicationRange "nan m"
attr unit m
par lab7.radioMedium.mediumLimitCache maxInterferenceRange "nan m"
attr unit m
par lab7.radioMedium.communicationCache typename "\"inet.physicallayer.wireless.common.communicationcache.VectorCommunicationCache\""
par lab7.radioMedium typename "\"inet.physicallayer.wireless.ieee80211.packetlevel.Ieee80211ScalarRadioMedium\""
par lab7.radioMedium physicalEnvironmentModule "\"physicalEnvironment\""
par lab7.radioMedium signalAnalogRepresentation "\"scalar\""
attr enum unitDisk,scalar,dimensional
par lab7.radioMedium rangeFilter "\"\""
par lab7.radioMedium radioModeFilter false
par lab7.radioMedium listeningFilter false
par lab7.radioMedium macAddressFilter false
par lab7.radioMedium recordTransmissionLog false
par lab7.radioMedium recordReceptionLog false
scalar lab7.radioMedium "transmission count" 13
scalar lab7.radioMedium "signal send count" 52
scalar lab7.radioMedium "reception computation count" 49
scalar lab7.radioMedium "interference computation count" 167
scalar lab7.radioMedium "reception decision computation count" 15
scalar lab7.radioMedium "listening decision computation count" 103
scalar lab7.radioMedium "reception cache hit" 79.583333333333
attr unit %
scalar lab7.radioMedium "interference cache hit" 66.666666666667
attr unit %
scalar lab7.radioMedium "noise cache hit" 0
attr unit %
scalar lab7.radioMedium "snir cache hit" 50
attr unit %
scalar lab7.radioMedium "reception decision cache hit" 50
attr unit %
scalar lab7.radioMedium "reception result cache hit" 0
attr unit %
par lab7.host[0].radioIn[0].channel typename "\"ned.IdealChannel\""
par lab7.host[0].mobility typename "\"inet.mobility.single.MassMobility\""
par lab7.host[0].mobility subjectModule "\"^\""
par lab7.host[0].mobility coordinateSystemModule "\"\""
par lab7.host[0].mobility displayStringTextFormat "\"p: %p\\nv: %v\""
attr mutable ""
par lab7.host[0].mobility updateDisplayString true
par lab7.host[0].mobility constraintAreaMinX 0m
attr unit m
par lab7.host[0].mobility constraintAreaMinY 0m
attr unit m
par lab7.host[0].mobility constraintAreaMinZ 0m
attr unit m
par lab7.host[0].mobility constraintAreaMaxX 600m
attr unit m
par lab7.host[0].mobility constraintAreaMaxY 400m
attr unit m
par lab7.host[0].mobility constraintAreaMaxZ 0m
attr unit m
par lab7.host[0].mobility updateInterval 0.1s
attr unit s
par lab7.host[0].mobility faceForward true
par lab7.host[0].mobility initialX 250.213m
attr unit m
par lab7.host[0].mobility initialY 398.874m
attr unit m
par lab7.host[0].mobility initialZ 0m
attr unit m
par lab7.host[0].mobility initialMovementHeading 335.721deg
attr unit deg
par lab7.host[0].mobility initialMovementElevation 0deg
attr unit deg
par lab7.host[0].mobility initFromDisplayString false
par lab7.host[0].mobility changeInterval "truncnormal(2s, 0.5s)"
attr unit s
par lab7.host[0].mobility angleDelta "normal(0deg, 30deg)"
attr unit deg
par lab7.host[0].mobility rotationAxisAngle 0deg
attr unit deg
par lab7.host[0].mobility speed "truncnormal(20mps, 8mps)"
attr mutable ""
attr unit mps
par lab7.host[0].interfaceTable typename "\"inet.networklayer.common.InterfaceTable\""
par lab7.host[0].interfaceTable displayAddresses false
par lab7.host[0].cb typename "\"inet.common.MessageDispatcher\""
par lab7.host[0].cb displayStringTextFormat "\"processed %p pk (%l)\""
par lab7.host[0].cb forwardServiceRegistration true
par lab7.host[0].cb forwardProtocolRegistration true
par lab7.host[0].bl typename "\"inet.common.MessageDispatcher\""
par lab7.host[0].bl displayStringTextFormat "\"processed %p pk (%l)\""
par lab7.host[0].bl forwardServiceRegistration true
par lab7.host[0].bl forwardProtocolRegistration true
par lab7.host[0].li typename "\"inet.common.MessageDispatcher\""
par lab7.host[0].li displayStringTextFormat "\"processed %p pk (%l)\""
par lab7.host[0].li forwardServiceRegistration true
par lab7.host[0].li forwardProtocolRegistration true
par lab7.host[0].lo[0].upperLayerIn.channel typename "\"ned.IdealChannel\""
par lab7.host[0].lo[0].lo.upperLayerOut.channel typename "\"ned.IdealChannel\""
par lab7.host[0].lo[0].lo typename "\"inet.linklayer.loopback.Loopback\""
par lab7.host[0].lo[0].lo interfaceTableModule "\"lab7.host[0].interfaceTable\""
par lab7.host[0].lo[0].lo mtu 4470B
attr unit B
scalar lab7.host[0].lo[0].lo rcvdPkFromHl:count 0
attr interpolationmode none
attr recordingmode count
attr source packetReceivedFromUpper
attr title "packets received from higher layer, count"
scalar lab7.host[0].lo[0].lo rcvdPkFromHl:sum(packetBytes) 0
attr interpolationmode none
attr recordingmode sum(packetBytes)
attr source packetReceivedFromUpper
attr title "packets received from higher layer, sum(packetBytes)"
scalar lab7.host[0].lo[0].lo passedUpPk:count 0
attr interpolationmode none
attr recordingmode count
attr source packetSentToUpper
attr title "packets passed to higher layer, count"
scalar lab7.host[0].lo[0].lo passedUpPk:sum(packetBytes) 0
attr interpolationmode none
attr recordingmode sum(packetBytes)
attr source packetSentToUpper
attr title "packets passed to higher layer, sum(packetBytes)"
par lab7.host[0].lo[0] typename "\"inet.linklayer.loopback.LoopbackInterface\""
par lab7.host[0].lo[0] displayStringTextFormat "\"%a (%i)\\n%m\""
par lab7.host[0].lo[0] recordPcap false
par lab7.host[0].lo[0] numPcapRecorders 0
par lab7.host[0].lo[0] interfaceTableModule "\"lab7.host[0].interfaceTable\""
scalar lab7.host[0].lo[0] packetDropInterfaceDown:count 0
attr interpolationmode none
attr recordingmode count
attr source packetDropReasonIsInterfaceDown(packetDropped)
attr title "packet drops: interface down, count"
scalar lab7.host[0].lo[0] packetDropInterfaceDown:sum(packetBytes) 0
attr interpolationmode none
attr recordingmode sum(packetBytes)
attr source packetDropReasonIsInterfaceDown(packetDropped)
attr title "packet drops: interface down, sum(packetBytes)"
scalar lab7.host[0].lo[0] packetDropNoCarrier:count 0
attr interpolationmode none
attr recordingmode count
attr source packetDropReasonIsNoCarrier(packetDropped)
attr title "packet drops: no carrier, count"
scalar lab7.host[0].lo[0] packetDropNoCarrier:sum(packetBytes) 0
attr interpolationmode none
attr recordingmode sum(packetBytes)
attr source packetDropReasonIsNoCarrier(packetDropped)
attr title "packet drops: no carrier, sum(packetBytes)"
par lab7.host[0].wlan[0].radioIn.channel typename "\"ned.IdealChannel\""
par lab7.host[0].wlan[0].llc.upperLayerOut.channel typename "\"ned.IdealChannel\""
par lab7.host[0].wlan[0].upperLayerIn.channel typename "\"ned.IdealChannel\""
par lab7.host[0].wlan[0].mib typename "\"inet.linklayer.ieee80211.mib.Ieee80211Mib\""
par lab7.host[0].wlan[0].llc typename "\"inet.linklayer.ieee80211.llc.Ieee80211LlcLpd\""
par lab7.host[0].wlan[0].llc registerProtocol false
par lab7.host[0].wlan[0].mgmt typename "\"inet.linklayer.ieee80211.mgmt.Ieee80211MgmtAdhoc\""
par lab7.host[0].wlan[0].mgmt mibModule "\"lab7.host[0].wlan[0].mib\""
par lab7.host[0].wlan[0].mgmt macModule "\"lab7.host[0].wlan[0].mac\""
par lab7.host[0].wlan[0].mgmt interfaceTableModule "\"lab7.host[0].interfaceTable\""
par lab7.host[0].wlan[0].mac.dcf.channelAccess.pendingQueue typename "\"inet.linklayer.ieee80211.mac.queue.PendingQueue\""
par lab7.host[0].wlan[0].mac.dcf.channelAccess.pendingQueue displayStringTextFormat "\"contains %p pk (%l) pushed %u\\npulled %o removed %r dropped %d\""
par lab7.host[0].wlan[0].mac.dcf.channelAccess.pendingQueue packetCapacity 100
par lab7.host[0].wlan[0].mac.dcf.channelAccess.pendingQueue dataCapacity -1b
attr unit b
par lab7.host[0].wlan[0].mac.dcf.channelAccess.pendingQueue dropperClass "\"inet::queueing::PacketAtCollectionEndDropper\""
par lab7.host[0].wlan[0].mac.dcf.channelAccess.pendingQueue comparatorClass "\"inet::ieee80211::MgmtOverDataComparator\""
par lab7.host[0].wlan[0].mac.dcf.channelAccess.pendingQueue bufferModule "\"\""
scalar lab7.host[0].wlan[0].mac.dcf.channelAccess.pendingQueue queueLength:last 0
attr autoWarmupFilter false
attr interpolationmode sample-hold
attr recordingmode last
attr source "warmup(atomic(constant0(packetPushEnded) + count(packetPushStarted) - count(packetPulled) - count(packetRemoved) - count(packetDropped)))"
attr title "queue length, last"
attr unit pk
scalar lab7.host[0].wlan[0].mac.dcf.channelAccess.pendingQueue queueLength:max 1
attr autoWarmupFilter false
attr interpolationmode sample-hold
attr recordingmode max
attr source "warmup(atomic(constant0(packetPushEnded) + count(packetPushStarted) - count(packetPulled) - count(packetRemoved) - count(packetDropped)))"
attr title "queue length, max"
attr unit pk
scalar lab7.host[0].wlan[0].mac.dcf.channelAccess.pendingQueue queueLength:timeavg 0.00018323108663751
attr autoWarmupFilter false
attr interpolationmode sample-hold
attr recordingmode timeavg
attr source "warmup(atomic(constant0(packetPushEnded) + count(packetPushStarted) - count(packetPulled) - count(packetRemoved) - count(packetDropped)))"
attr title "queue length, timeavg"
attr unit pk
scalar lab7.host[0].wlan[0].mac.dcf.channelAccess.pendingQueue queueBitLength:last 0
attr autoWarmupFilter false
attr interpolationmode sample-hold
attr recordingmode last
attr source "warmup(atomic(constant0(packetPushEnded) + sum(packetLength(packetPushStarted)) - sum(packetLength(packetPulled)) - sum(packetLength(packetRemoved)) - sum(packetLength(packetDropped))))"
attr title "queue bit length, last"
attr unit b
scalar lab7.host[0].wlan[0].mac.dcf.channelAccess.pendingQueue queueBitLength:max 960
attr autoWarmupFilter false
attr interpolationmode sample-hold
attr recordingmode max
attr source "warmup(atomic(constant0(packetPushEnded) + sum(packetLength(packetPushStarted)) - sum(packetLength(packetPulled)) - sum(packetLength(packetRemoved)) - sum(packetLength(packetDropped))))"
attr title "queue bit length, max"
attr unit b
scalar lab7.host[0].wlan[0].mac.dcf.channelAccess.pendingQueue queueBitLength:timeavg 0.16411381712828
attr autoWarmupFilter false
attr interpolationmode sample-hold
attr recordingmode timeavg
attr source "warmup(atomic(constant0(packetPushEnded) + sum(packetLength(packetPushStarted)) - sum(packetLength(packetPulled)) - sum(packetLength(packetRemoved)) - sum(packetLength(packetDropped))))"
attr title "queue bit length, timeavg"
attr unit b
statistic lab7.host[0].wlan[0].mac.dcf.channelAccess.pendingQueue queueingTime:histogram
field count 3
field mean 0.00025533333333333
field stddev 0.00012744148984272
field min 0.00011
field max 0.000348
field sum 0.000766
field sqrsum 2.28068e-07
attr interpolationmode none
attr recordingmode histogram
attr source queueingTime(packetPulled)
attr title "queueing times"
attr unit s
bin	-inf	0
bin	5e-05	0
bin	5.5e-05	0
bin	6e-05	0
bin	6.5e-05	0
bin	7e-05	0
bin	7.5e-05	0
bin	8e-05	0
bin	8.5e-05	0
bin	9e-05	0
bin	9.5e-05	0
bin	0.0001	0
bin	0.000105	1
bin	0.00011	0
bin	0.000115	0
bin	0.00012	0
bin	0.000125	0
bin	0.00013	0
bin	0.000135	0
bin	0.00014	0
bin	0.000145	0
bin	0.00015	0
bin	0.000155	0
bin	0.00016	0
bin	0.000165	0
bin	0.00017	0
bin	0.000175	0
bin	0.00018	0
bin	0.000185	0
bin	0.00019	0
bin	0.000195	0
bin	0.0002	0
bin	0.000205	0
bin	0.00021	0
bin	0.000215	0
bin	0.00022	0
bin	0.000225	0
bin	0.00023	0
bin	0.000235	0
bin	0.00024	0
bin	0.000245	0
bin	0.00025	0
bin	0.000255	0
bin	0.00026	0
bin	0.000265	0
bin	0.00027	0
bin	0.000275	0
bin	0.00028	0
bin	0.000285	0
bin	0.00029	0
bin	0.000295	0
bin	0.0003	0
bin	0.000305	1
bin	0.00031	0
bin	0.000315	0
bin	0.00032	0
bin	0.000325	0
bin	0.00033	0
bin	0.000335	0
bin	0.00034	0
bin	0.000345	1
bin	0.00035	0
bin	0.000355	0
bin	0.00036	0
bin	0.000365	0
bin	0.00037	0
bin	0.000375	0
bin	0.00038	0
bin	0.000385	0
bin	0.00039	0
bin	0.000395	0
bin	0.0004	0
bin	0.000405	0
bin	0.00041	0
scalar lab7.host[0].wlan[0].mac.dcf.channelAccess.pendingQueue outgoingPackets:count 3
attr recordingmode count
attr source packetPulled
attr title "outgoing packets, count"
attr unit pk
scalar lab7.host[0].wlan[0].mac.dcf.channelAccess.pendingQueue outgoingPacketLengths:sum 2432
attr interpolationmode none
attr recordingmode sum
attr source packetLength(packetPulled)
attr title "outgoing packet lengths, sum"
attr unit b
statistic lab7.host[0].wlan[0].mac.dcf.channelAccess.pendingQueue outgoingPacketLengths:histogram
field count 3
field mean 810.66666666667
field stddev 258.65292059695
field min 512
field max 960
field sum 2432
field sqrsum 2105344
attr interpolationmode none
attr recordingmode histogram
attr source packetLength(packetPulled)
attr title "outgoing packet lengths"
attr unit b
bin	-inf	0
bin	400	0
bin	410	0
bin	420	0
bin	430	0
bin	440	0
bin	450	0
bin	460	0
bin	470	0
bin	480	0
bin	490	0
bin	500	0
bin	510	1
bin	520	0
bin	530	0
bin	540	0
bin	550	0
bin	560	0
bin	570	0
bin	580	0
bin	590	0
bin	600	0
bin	610	0
bin	620	0
bin	630	0
bin	640	0
bin	650	0
bin	660	0
bin	670	0
bin	680	0
bin	690	0
bin	700	0
bin	710	0
bin	720	0
bin	730	0
bin	740	0
bin	750	0
bin	760	0
bin	770	0
bin	780	0
bin	790	0
bin	800	0
bin	810	0
bin	820	0
bin	830	0
bin	840	0
bin	850	0
bin	860	0
bin	870	0
bin	880	0
bin	890	0
bin	900	0
bin	910	0
bin	920	0
bin	930	0
bin	940	0
bin	950	0
bin	960	2
bin	970	0
bin	980	0
bin	990	0
bin	1000	0
bin	1010	0
bin	1020	0
bin	1030	0
bin	1040	0
bin	1050	0
bin	1060	0
bin	1070	0
bin	1080	0
statistic lab7.host[0].wlan[0].mac.dcf.channelAccess.pendingQueue flowQueueingTime:histogram
field count 0
field mean nan
field stddev nan
field min nan
field max nan
field sum 0
field sqrsum 0
attr interpolationmode none
attr recordingmode histogram
attr source queueingTime(demuxFlow(packetPulled))
attr title "flow queueing times"
attr unit s
bin	-inf	0
bin	0	0
bin	1	0
scalar lab7.host[0].wlan[0].mac.dcf.channelAccess.pendingQueue incomingPackets:count 3
attr recordingmode count
attr source packetPushStarted
attr title "incoming packets, count"
attr unit pk
scalar lab7.host[0].wlan[0].mac.dcf.channelAccess.pendingQueue incomingPacketLengths:sum 2432
attr interpolationmode none
attr recordingmode sum
attr source packetLength(packetPushStarted)
attr title "incoming packet lengths, sum"
attr unit b
statistic lab7.host[0].wlan[0].mac.dcf.channelAccess.pendingQueue incomingPacketLengths:histogram
field count 3
field mean 810.66666666667
field stddev 258.65292059695
field min 512
field max 960
field sum 2432
field sqrsum 2105344
attr interpolationmode none
attr recordingmode histogram
attr source packetLength(packetPushStarted)
attr title "incoming packet lengths"
attr unit b
bin	-inf	0
bin	400	0
bin	410	0
bin	420	0
bin	430	0
bin	440	0
bin	450	0
bin	460	0
bin	470	0
bin	480	0
bin	490	0
bin	500	0
bin	510	1
bin	520	0
bin	530	0
bin	540	0
bin	550	0
bin	560	0
bin	570	0
bin	580	0
bin	590	0
bin	600	0
bin	610	0
bin	620	0
bin	630	0
bin	640	0
bin	650	0
bin	660	0
bin	670	0
bin	680	0
bin	690	0
bin	700	0
bin	710	0
bin	720	0
bin	730	0
bin	740	0
bin	750	0
bin	760	0
bin	770	0
bin	780	0
bin	790	0
bin	800	0
bin	810	0
bin	820	0
bin	830	0
bin	840	0
bin	850	0
bin	860	0
bin	870	0
bin	880	0
bin	890	0
bin	900	0
bin	910	0
bin	920	0
bin	930	0
bin	940	0
bin	950	0
bin	960	2
bin	970	0
bin	980	0
bin	990	0
bin	1000	0
bin	1010	0
bin	1020	0
bin	1030	0
bin	1040	0
bin	1050	0
bin	1060	0
bin	1070	0
bin	1080	0
scalar lab7.host[0].wlan[0].mac.dcf.channelAccess.pendingQueue droppedPacketsQueueOverflow:count 0
attr interpolationmode none
attr recordingmode count
attr source packetDropReasonIsQueueOverflow(packetDropped)
attr title "dropped packets: queue overflow, count"
attr unit pk
scalar lab7.host[0].wlan[0].mac.dcf.channelAccess.pendingQueue droppedPacketLengthsQueueOverflow:sum 0
attr interpolationmode none
attr recordingmode sum
attr source packetLength(packetDropReasonIsQueueOverflow(packetDropped))
attr title "dropped packet lengths: queue overflow, sum"
attr unit b
par lab7.host[0].wlan[0].mac.dcf.channelAccess.inProgressFrames typename "\"inet.linklayer.ieee80211.mac.queue.InProgressFrames\""
par lab7.host[0].wlan[0].mac.dcf.channelAccess.inProgressFrames pendingQueueModule "\"^.pendingQueue\""
par lab7.host[0].wlan[0].mac.dcf.channelAccess.inProgressFrames originatorMacDataServiceModule "\"^.^.originatorMacDataService\""
par lab7.host[0].wlan[0].mac.dcf.channelAccess.inProgressFrames ackHandlerModule "\"^.^.ackHandler\""
statistic lab7.host[0].wlan[0].mac.dcf.channelAccess.inProgressFrames queueingTime:histogram
field count 2
field mean 0.0008182057375
field stddev 0.00015839194656295
field min 0.000706205718
field max 0.000930205757
field sum 0.001636411475
field sqrsum 1.3640092664918e-06
attr interpolationmode none
attr recordingmode histogram
attr source queueingTime(packetDequeued)
attr title "queueing times"
bin	-inf	0
bin	0.00065	0
bin	0.000655	0
bin	0.00066	0
bin	0.000665	0
bin	0.00067	0
bin	0.000675	0
bin	0.00068	0
bin	0.000685	0
bin	0.00069	0
bin	0.000695	0
bin	0.0007	0
bin	0.000705	1
bin	0.00071	0
bin	0.000715	0
bin	0.00072	0
bin	0.000725	0
bin	0.00073	0
bin	0.000735	0
bin	0.00074	0
bin	0.000745	0
bin	0.00075	0
bin	0.000755	0
bin	0.00076	0
bin	0.000765	0
bin	0.00077	0
bin	0.000775	0
bin	0.00078	0
bin	0.000785	0
bin	0.00079	0
bin	0.000795	0
bin	0.0008	0
bin	0.000805	0
bin	0.00081	0
bin	0.000815	0
bin	0.00082	0
bin	0.000825	0
bin	0.00083	0
bin	0.000835	0
bin	0.00084	0
bin	0.000845	0
bin	0.00085	0
bin	0.000855	0
bin	0.00086	0
bin	0.000865	0
bin	0.00087	0
bin	0.000875	0
bin	0.00088	0
bin	0.000885	0
bin	0.00089	0
bin	0.000895	0
bin	0.0009	0
bin	0.000905	0
bin	0.00091	0
bin	0.000915	0
bin	0.00092	0
bin	0.000925	0
bin	0.00093	1
bin	0.000935	0
bin	0.00094	0
bin	0.000945	0
bin	0.00095	0
bin	0.000955	0
bin	0.00096	0
bin	0.000965	0
bin	0.00097	0
bin	0.000975	0
bin	0.00098	0
bin	0.000985	0
bin	0.00099	0
scalar lab7.host[0].wlan[0].mac.dcf.channelAccess.inProgressFrames queueLength:max 1
attr autoWarmupFilter false
attr interpolationmode sample-hold
attr recordingmode max
attr source "warmup(count(packetEnqueued) - count(packetDequeued))"
attr title "queue length, max"
scalar lab7.host[0].wlan[0].mac.dcf.channelAccess.inProgressFrames queueLength:timeavg 0.00039156923782341
attr autoWarmupFilter false
attr interpolationmode sample-hold
attr recordingmode timeavg
attr source "warmup(count(packetEnqueued) - count(packetDequeued))"
attr title "queue length, timeavg"
par lab7.host[0].wlan[0].mac.dcf.channelAccess.contention typename "\"inet.linklayer.ieee80211.mac.contention.Contention\""
par lab7.host[0].wlan[0].mac.dcf.channelAccess.contention initialChannelBusy true
par lab7.host[0].wlan[0].mac.dcf.channelAccess.contention backoffOptimization true
scalar lab7.host[0].wlan[0].mac.dcf.channelAccess.contention stateChanged:count 44
attr enum IDLE,DEFER,IFS_AND_BACKOFF
attr interpolationmode none
attr recordingmode count
attr title "contention state changed, count"
attr type enum
scalar lab7.host[0].wlan[0].mac.dcf.channelAccess.contention channelAccessGranted:count 3
attr recordingmode count
attr title "channel access granted, count"
par lab7.host[0].wlan[0].mac.dcf.channelAccess typename "\"inet.linklayer.ieee80211.mac.channelaccess.Dcaf\""
par lab7.host[0].wlan[0].mac.dcf.channelAccess difsn -1
par lab7.host[0].wlan[0].mac.dcf.channelAccess cwMin 7
par lab7.host[0].wlan[0].mac.dcf.channelAccess cwMax -1
par lab7.host[0].wlan[0].mac.dcf.channelAccess rxModule "\"^.^.rx\""
scalar lab7.host[0].wlan[0].mac.dcf.channelAccess channelOwnershipChanged:count 5
attr interpolationmode sample-hold
attr recordingmode count
attr title "channel ownership, count"
par lab7.host[0].wlan[0].mac.dcf.originatorMacDataService.fragmentationPolicy typename "\"inet.linklayer.ieee80211.mac.fragmentation.BasicFragmentationPolicy\""
par lab7.host[0].wlan[0].mac.dcf.originatorMacDataService.fragmentationPolicy fragmentationThreshold 1500B
attr unit B
par lab7.host[0].wlan[0].mac.dcf.originatorMacDataService typename "\"inet.linklayer.ieee80211.mac.originator.OriginatorMacDataService\""
scalar lab7.host[0].wlan[0].mac.dcf.originatorMacDataService packetAggregated:count 0
attr recordingmode count
attr title "packets aggregated, count"
scalar lab7.host[0].wlan[0].mac.dcf.originatorMacDataService packetFragmented:count 0
attr recordingmode count
attr title "packets fragmented, count"
par lab7.host[0].wlan[0].mac.dcf.recipientMacDataService typename "\"inet.linklayer.ieee80211.mac.recipient.RecipientMacDataService\""
scalar lab7.host[0].wlan[0].mac.dcf.recipientMacDataService packetDropDuplicateDetected:count 0
attr interpolationmode none
attr recordingmode count
attr source packetDropReasonIsDuplicateDetected(packetDropped)
attr title "packet drops: duplicate detected, count"
scalar lab7.host[0].wlan[0].mac.dcf.recipientMacDataService packetDropDuplicateDetected:sum(packetBytes) 0
attr interpolationmode none
attr recordingmode sum(packetBytes)
attr source packetDropReasonIsDuplicateDetected(packetDropped)
attr title "packet drops: duplicate detected, sum(packetBytes)"
scalar lab7.host[0].wlan[0].mac.dcf.recipientMacDataService packetDeaggregated:count 0
attr recordingmode count
attr title "packets deaggregated, count"
scalar lab7.host[0].wlan[0].mac.dcf.recipientMacDataService packetDefragmented:count 3
attr recordingmode count
attr title "packets defragmented, count"
par lab7.host[0].wlan[0].mac.dcf.rateSelection typename "\"inet.linklayer.ieee80211.mac.rateselection.RateSelection\""
par lab7.host[0].wlan[0].mac.dcf.rateSelection rateControlModule "\"^.rateControl\""
par lab7.host[0].wlan[0].mac.dcf.rateSelection multicastFrameBitrate -1bps
attr unit bps
par lab7.host[0].wlan[0].mac.dcf.rateSelection responseAckFrameBitrate -1bps
attr unit bps
par lab7.host[0].wlan[0].mac.dcf.rateSelection responseCtsFrameBitrate -1bps
attr unit bps
par lab7.host[0].wlan[0].mac.dcf.rateSelection dataFrameBitrate 2e+06bps
attr unit bps
par lab7.host[0].wlan[0].mac.dcf.rateSelection dataFrameBandwidth "nan Hz"
attr unit Hz
par lab7.host[0].wlan[0].mac.dcf.rateSelection dataFrameNumSpatialStreams -1
par lab7.host[0].wlan[0].mac.dcf.rateSelection mgmtFrameBitrate -1bps
attr unit bps
par lab7.host[0].wlan[0].mac.dcf.rateSelection controlFrameBitrate -1bps
attr unit bps
par lab7.host[0].wlan[0].mac.dcf.recoveryProcedure typename "\"inet.linklayer.ieee80211.mac.originator.NonQosRecoveryProcedure\""
par lab7.host[0].wlan[0].mac.dcf.recoveryProcedure cwCalculatorModule "\"^.channelAccess\""
par lab7.host[0].wlan[0].mac.dcf.recoveryProcedure rtsPolicyModule "\"^.rtsPolicy\""
par lab7.host[0].wlan[0].mac.dcf.recoveryProcedure shortRetryLimit 7
par lab7.host[0].wlan[0].mac.dcf.recoveryProcedure longRetryLimit 4
scalar lab7.host[0].wlan[0].mac.dcf.recoveryProcedure retryLimitReached:count 0
attr recordingmode count
attr title "retry limit reached, count"
par lab7.host[0].wlan[0].mac.dcf.originatorProtectionMechanism typename "\"inet.linklayer.ieee80211.mac.protectionmechanism.OriginatorProtectionMechanism\""
par lab7.host[0].wlan[0].mac.dcf.originatorProtectionMechanism rateSelectionModule "\"^.rateSelection\""
par lab7.host[0].wlan[0].mac.dcf.ackHandler typename "\"inet.linklayer.ieee80211.mac.originator.AckHandler\""
par lab7.host[0].wlan[0].mac.dcf.originatorAckPolicy typename "\"inet.linklayer.ieee80211.mac.originator.OriginatorAckPolicy\""
par lab7.host[0].wlan[0].mac.dcf.originatorAckPolicy rateSelectionModule "\"^.rateSelection\""
par lab7.host[0].wlan[0].mac.dcf.originatorAckPolicy ackTimeout -1s
attr unit s
par lab7.host[0].wlan[0].mac.dcf.recipientAckPolicy typename "\"inet.linklayer.ieee80211.mac.recipient.RecipientAckPolicy\""
par lab7.host[0].wlan[0].mac.dcf.recipientAckPolicy rateSelectionModule "\"^.rateSelection\""
par lab7.host[0].wlan[0].mac.dcf.rtsPolicy typename "\"inet.linklayer.ieee80211.mac.originator.RtsPolicy\""
par lab7.host[0].wlan[0].mac.dcf.rtsPolicy rateSelectionModule "\"^.rateSelection\""
par lab7.host[0].wlan[0].mac.dcf.rtsPolicy ctsTimeout -1s
attr unit s
par lab7.host[0].wlan[0].mac.dcf.rtsPolicy rtsThreshold 2346B
attr unit B
par lab7.host[0].wlan[0].mac.dcf.ctsPolicy typename "\"inet.linklayer.ieee80211.mac.recipient.CtsPolicy\""
par lab7.host[0].wlan[0].mac.dcf.ctsPolicy rxModule "\"^.^.rx\""
par lab7.host[0].wlan[0].mac.dcf.ctsPolicy rateSelectionModule "\"^.rateSelection\""
par lab7.host[0].wlan[0].mac.dcf typename "\"inet.linklayer.ieee80211.mac.coordinationfunction.Dcf\""
par lab7.host[0].wlan[0].mac.dcf rxModule "\"^.rx\""
par lab7.host[0].wlan[0].mac.dcf txModule "\"^.tx\""
scalar lab7.host[0].wlan[0].mac.dcf packetReceivedFromPeer:count 5
attr interpolationmode none
attr recordingmode count
attr title "packets received, count"
scalar lab7.host[0].wlan[0].mac.dcf packetReceivedFromPeer:sum(packetBytes) 332
attr interpolationmode none
attr recordingmode sum(packetBytes)
attr title "packets received, sum(packetBytes)"
scalar lab7.host[0].wlan[0].mac.dcf packetReceivedFromPeerUnicast:count 4
attr interpolationmode none
attr recordingmode count
attr source ieee80211Unicast(packetReceivedFromPeer)
attr title "packets received: unicast, count"
scalar lab7.host[0].wlan[0].mac.dcf packetReceivedFromPeerUnicast:sum(packetBytes) 268
attr interpolationmode none
attr recordingmode sum(packetBytes)
attr source ieee80211Unicast(packetReceivedFromPeer)
attr title "packets received: unicast, sum(packetBytes)"
scalar lab7.host[0].wlan[0].mac.dcf packetReceivedFromPeerMulticast:count 1
attr interpolationmode none
attr recordingmode count
attr source ieee80211Multicast(packetReceivedFromPeer)
attr title "packets received: multicast, count"
scalar lab7.host[0].wlan[0].mac.dcf packetReceivedFromPeerMulticast:sum(packetBytes) 64
attr interpolationmode none
attr recordingmode sum(packetBytes)
attr source ieee80211Multicast(packetReceivedFromPeer)
attr title "packets received: multicast, sum(packetBytes)"
scalar lab7.host[0].wlan[0].mac.dcf packetReceivedFromPeerBroadcast:count 1
attr interpolationmode none
attr recordingmode count
attr source ieee80211Broadcast(packetReceivedFromPeer)
attr title "packets received: broadcast, count"
scalar lab7.host[0].wlan[0].mac.dcf packetReceivedFromPeerBroadcast:sum(packetBytes) 64
attr interpolationmode none
attr recordingmode sum(packetBytes)
attr source ieee80211Broadcast(packetReceivedFromPeer)
attr title "packets received: broadcast, sum(packetBytes)"
scalar lab7.host[0].wlan[0].mac.dcf packetReceivedFromPeerWithRetry:count 0
attr interpolationmode none
attr recordingmode count
attr source ieee80211Retry(packetReceivedFromPeer)
attr title "packets received: with retry, count"
scalar lab7.host[0].wlan[0].mac.dcf packetReceivedFromPeerWithRetry:sum(packetBytes) 0
attr interpolationmode none
attr recordingmode sum(packetBytes)
attr source ieee80211Retry(packetReceivedFromPeer)
attr title "packets received: with retry, sum(packetBytes)"
scalar lab7.host[0].wlan[0].mac.dcf packetReceivedFromPeerWithoutRetry:count 5
attr interpolationmode none
attr recordingmode count
attr source ieee80211NotRetry(packetReceivedFromPeer)
attr title "packets received: without retry, count"
scalar lab7.host[0].wlan[0].mac.dcf packetReceivedFromPeerWithoutRetry:sum(packetBytes) 332
attr interpolationmode none
attr recordingmode sum(packetBytes)
attr source ieee80211NotRetry(packetReceivedFromPeer)
attr title "packets received: without retry, sum(packetBytes)"
scalar lab7.host[0].wlan[0].mac.dcf packetSentToPeer:count 4
attr interpolationmode none
attr recordingmode count
attr title "packets sent, count"
scalar lab7.host[0].wlan[0].mac.dcf packetSentToPeer:sum(packetBytes) 212
attr interpolationmode none
attr recordingmode sum(packetBytes)
attr title "packets sent, sum(packetBytes)"
scalar lab7.host[0].wlan[0].mac.dcf packetSentToPeerUnicast:count 4
attr interpolationmode none
attr recordingmode count
attr source ieee80211Unicast(packetSentToPeer)
attr title "packets sent: unicast, count"
scalar lab7.host[0].wlan[0].mac.dcf packetSentToPeerUnicast:sum(packetBytes) 212
attr interpolationmode none
attr recordingmode sum(packetBytes)
attr source ieee80211Unicast(packetSentToPeer)
attr title "packets sent: unicast, sum(packetBytes)"
scalar lab7.host[0].wlan[0].mac.dcf packetSentToPeerMulticast:count 0
attr interpolationmode none
attr recordingmode count
attr source ieee80211Multicast(packetSentToPeer)
attr title "packets sent: multicast, count"
scalar lab7.host[0].wlan[0].mac.dcf packetSentToPeerMulticast:sum(packetBytes) 0
attr interpolationmode none
attr recordingmode sum(packetBytes)
attr source ieee80211Multicast(packetSentToPeer)
attr title "packets sent: multicast, sum(packetBytes)"
scalar lab7.host[0].wlan[0].mac.dcf packetSentToPeerBroadcast:count 0
attr interpolationmode none
attr recordingmode count
attr source ieee80211Broadcast(packetSentToPeer)
attr title "packets sent: broadcast , count"
scalar lab7.host[0].wlan[0].mac.dcf packetSentToPeerBroadcast:sum(packetBytes) 0
attr interpolationmode none
attr recordingmode sum(packetBytes)
attr source ieee80211Broadcast(packetSentToPeer)
attr title "packets sent: broadcast , sum(packetBytes)"
scalar lab7.host[0].wlan[0].mac.dcf packetSentToPeerWithRetry:count 0
attr interpolationmode none
attr recordingmode count
attr source ieee80211Retry(packetSentToPeer)
attr title "packets sent: with retry, count"
scalar lab7.host[0].wlan[0].mac.dcf packetSentToPeerWithRetry:sum(packetBytes) 0
attr interpolationmode none
attr recordingmode sum(packetBytes)
attr source ieee80211Retry(packetSentToPeer)
attr title "packets sent: with retry, sum(packetBytes)"
scalar lab7.host[0].wlan[0].mac.dcf packetSentToPeerWithoutRetry:count 4
attr interpolationmode none
attr recordingmode count
attr source ieee80211NotRetry(packetSentToPeer)
attr title "packets sent: without retry, count"
scalar lab7.host[0].wlan[0].mac.dcf packetSentToPeerWithoutRetry:sum(packetBytes) 212
attr interpolationmode none
attr recordingmode sum(packetBytes)
attr source ieee80211NotRetry(packetSentToPeer)
attr title "packets sent: without retry, sum(packetBytes)"
scalar lab7.host[0].wlan[0].mac.dcf packetDrop:count 0
attr interpolationmode none
attr recordingmode count
attr source packetDropped
attr title "packet drops, count"
scalar lab7.host[0].wlan[0].mac.dcf packetDrop:sum(packetBytes) 0
attr interpolationmode none
attr recordingmode sum(packetBytes)
attr source packetDropped
attr title "packet drops, sum(packetBytes)"
scalar lab7.host[0].wlan[0].mac.dcf packetDropNotAddressedToUs:count 0
attr interpolationmode none
attr recordingmode count
attr source packetDropReasonIsNotAddressedToUs(packetDropped)
attr title "packet drops: not addressed to us, count"
scalar lab7.host[0].wlan[0].mac.dcf packetDropNotAddressedToUs:sum(packetBytes) 0
attr interpolationmode none
attr recordingmode sum(packetBytes)
attr source packetDropReasonIsNotAddressedToUs(packetDropped)
attr title "packet drops: not addressed to us, sum(packetBytes)"
scalar lab7.host[0].wlan[0].mac.dcf packetDropQueueOverflow:count 0
attr interpolationmode none
attr recordingmode count
attr source packetDropReasonIsQueueOverflow(packetDropped)
attr title "packet drops: queue overflow, count"
scalar lab7.host[0].wlan[0].mac.dcf packetDropQueueOverflow:sum(packetBytes) 0
attr interpolationmode none
attr recordingmode sum(packetBytes)
attr source packetDropReasonIsQueueOverflow(packetDropped)
attr title "packet drops: queue overflow, sum(packetBytes)"
scalar lab7.host[0].wlan[0].mac.dcf packetDropRetryLimitReached:count 0
attr interpolationmode none
attr recordingmode count
attr source packetDropReasonIsRetryLimitReached(packetDropped)
attr title "packet drops: retry limit reached, count"
scalar lab7.host[0].wlan[0].mac.dcf packetDropRetryLimitReached:sum(packetBytes) 0
attr interpolationmode none
attr recordingmode sum(packetBytes)
attr source packetDropReasonIsRetryLimitReached(packetDropped)
attr title "packet drops: retry limit reached, sum(packetBytes)"
scalar lab7.host[0].wlan[0].mac.dcf linkBroken:count 0
attr interpolationmode none
attr recordingmode count
attr title "link breaks, count"
scalar lab7.host[0].wlan[0].mac.dcf frameSequenceFinished:count 2
attr recordingmode count
attr title "finished frame sequences, count"
statistic lab7.host[0].wlan[0].mac.dcf frameSequenceDuration:histogram
field count 2
field mean 0.0008182057375
field stddev 0.00015839194656295
field min 0.000706205718
field max 0.000930205757
field sum 0.001636411475
field sqrsum 1.3640092664918e-06
attr recordingmode histogram
attr source frameSequenceDuration(frameSequenceFinished)
attr title "frame sequence durations"
bin	-inf	0
bin	0.00065	0
bin	0.000655	0
bin	0.00066	0
bin	0.000665	0
bin	0.00067	0
bin	0.000675	0
bin	0.00068	0
bin	0.000685	0
bin	0.00069	0
bin	0.000695	0
bin	0.0007	0
bin	0.000705	1
bin	0.00071	0
bin	0.000715	0
bin	0.00072	0
bin	0.000725	0
bin	0.00073	0
bin	0.000735	0
bin	0.00074	0
bin	0.000745	0
bin	0.00075	0
bin	0.000755	0
bin	0.00076	0
bin	0.000765	0
bin	0.00077	0
bin	0.000775	0
bin	0.00078	0
bin	0.000785	0
bin	0.00079	0
bin	0.000795	0
bin	0.0008	0
bin	0.000805	0
bin	0.00081	0
bin	0.000815	0
bin	0.00082	0
bin	0.000825	0
bin	0.00083	0
bin	0.000835	0
bin	0.00084	0
bin	0.000845	0
bin	0.00085	0
bin	0.000855	0
bin	0.00086	0
bin	0.000865	0
bin	0.00087	0
bin	0.000875	0
bin	0.00088	0
bin	0.000885	0
bin	0.00089	0
bin	0.000895	0
bin	0.0009	0
bin	0.000905	0
bin	0.00091	0
bin	0.000915	0
bin	0.00092	0
bin	0.000925	0
bin	0.00093	1
bin	0.000935	0
bin	0.00094	0
bin	0.000945	0
bin	0.00095	0
bin	0.000955	0
bin	0.00096	0
bin	0.000965	0
bin	0.00097	0
bin	0.000975	0
bin	0.00098	0
bin	0.000985	0
bin	0.00099	0
statistic lab7.host[0].wlan[0].mac.dcf frameSequenceNumPackets:histogram
field count 2
field mean 2
field stddev 0
field min 2
field max 2
field sum 4
field sqrsum 8
attr recordingmode histogram
attr source frameSequenceNumPackets(frameSequenceFinished)
attr title "frame sequences: number of packets"
bin	-inf	0
bin	1	0
bin	2	2
bin	3	0
par lab7.host[0].wlan[0].mac.ds typename "\"inet.linklayer.ieee80211.mac.Ds\""
par lab7.host[0].wlan[0].mac.ds mibModule "\"lab7.host[0].wlan[0].mib\""
par lab7.host[0].wlan[0].mac.rx typename "\"inet.linklayer.ieee80211.mac.Rx\""
par lab7.host[0].wlan[0].mac.tx typename "\"inet.linklayer.ieee80211.mac.Tx\""
par lab7.host[0].wlan[0].mac.tx rxModule "\"^.rx\""
par lab7.host[0].wlan[0].mac typename "\"inet.linklayer.ieee80211.mac.Ieee80211Mac\""
par lab7.host[0].wlan[0].mac interfaceTableModule "\"lab7.host[0].interfaceTable\""
par lab7.host[0].wlan[0].mac mibModule "\"lab7.host[0].wlan[0].mib\""
par lab7.host[0].wlan[0].mac modeSet "\"g(mixed)\""
attr enum a,b,g(erp),g(mixed),n(mixed-2.4Ghz),p,ac
par lab7.host[0].wlan[0].mac fcsMode "\"declared\""
attr enum declared,computed
par lab7.host[0].wlan[0].mac initialRadioMode "\"receiver\""
attr enum off,sleep,receiver,transmitter,transceiver
par lab7.host[0].wlan[0].mac mtu 2304B
attr unit B
par lab7.host[0].wlan[0].mac qosStation false
scalar lab7.host[0].wlan[0].mac packetReceivedFromLower:count 5
attr interpolationmode none
attr recordingmode count
attr title "packets received from lower layer, count"
scalar lab7.host[0].wlan[0].mac packetReceivedFromLower:sum(packetBytes) 332
attr interpolationmode none
attr recordingmode sum(packetBytes)
attr title "packets received from lower layer, sum(packetBytes)"
scalar lab7.host[0].wlan[0].mac packetSentToLower:count 5
attr interpolationmode none
attr recordingmode count
attr title "packets sent to lower layer, count"
scalar lab7.host[0].wlan[0].mac packetSentToLower:sum(packetBytes) 332
attr interpolationmode none
attr recordingmode sum(packetBytes)
attr title "packets sent to lower layer, sum(packetBytes)"
scalar lab7.host[0].wlan[0].mac packetReceivedFromUpper:count 3
attr interpolationmode none
attr recordingmode count
attr title "packets received from upper layer, count"
scalar lab7.host[0].wlan[0].mac packetReceivedFromUpper:sum(packetBytes) 220
attr interpolationmode none
attr recordingmode sum(packetBytes)
attr title "packets received from upper layer, sum(packetBytes)"
scalar lab7.host[0].wlan[0].mac packetSentToUpper:count 3
attr interpolationmode none
attr recordingmode count
attr title "packets sent to upper layer, count"
scalar lab7.host[0].wlan[0].mac packetSentToUpper:sum(packetBytes) 220
attr interpolationmode none
attr recordingmode sum(packetBytes)
attr title "packets sent to upper layer, sum(packetBytes)"
scalar lab7.host[0].wlan[0].mac packetDrop:count 0
attr interpolationmode none
attr recordingmode count
attr source packetDropped
attr title "packet drops, count"
scalar lab7.host[0].wlan[0].mac packetDrop:sum(packetBytes) 0
attr interpolationmode none
attr recordingmode sum(packetBytes)
attr source packetDropped
attr title "packet drops, sum(packetBytes)"
scalar lab7.host[0].wlan[0].mac packetDropIncorrectlyReceived:count 0
attr interpolationmode none
attr recordingmode count
attr source packetDropReasonIsIncorrectlyReceived(packetDropped)
attr title "packet drops: incorrectly received, count"
scalar lab7.host[0].wlan[0].mac packetDropIncorrectlyReceived:sum(packetBytes) 0
attr interpolationmode none
attr recordingmode sum(packetBytes)
attr source packetDropReasonIsIncorrectlyReceived(packetDropped)
attr title "packet drops: incorrectly received, sum(packetBytes)"
scalar lab7.host[0].wlan[0].mac packetDropNotAddressedToUs:count 0
attr interpolationmode none
attr recordingmode count
attr source packetDropReasonIsNotAddressedToUs(packetDropped)
attr title "packet drops: not addressed to us, count"
scalar lab7.host[0].wlan[0].mac packetDropNotAddressedToUs:sum(packetBytes) 0
attr interpolationmode none
attr recordingmode sum(packetBytes)
attr source packetDropReasonIsNotAddressedToUs(packetDropped)
attr title "packet drops: not addressed to us, sum(packetBytes)"
scalar lab7.host[0].wlan[0].mac packetDropQueueOverflow:count 0
attr interpolationmode none
attr recordingmode count
attr source packetDropReasonIsQueueOverflow(packetDropped)
attr title "packet drops: queue overflow, count"
scalar lab7.host[0].wlan[0].mac packetDropQueueOverflow:sum(packetBytes) 0
attr interpolationmode none
attr recordingmode sum(packetBytes)
attr source packetDropReasonIsQueueOverflow(packetDropped)
attr title "packet drops: queue overflow, sum(packetBytes)"
scalar lab7.host[0].wlan[0].mac packetDropRetryLimitReached:count 0
attr interpolationmode none
attr recordingmode count
attr source packetDropReasonIsRetryLimitReached(packetDropped)
attr title "packet drops: retry limit reached, count"
scalar lab7.host[0].wlan[0].mac packetDropRetryLimitReached:sum(packetBytes) 0
attr interpolationmode none
attr recordingmode sum(packetBytes)
attr source packetDropReasonIsRetryLimitReached(packetDropped)
attr title "packet drops: retry limit reached, sum(packetBytes)"
scalar lab7.host[0].wlan[0].mac packetDropDuplicateDetected:count 0
attr interpolationmode none
attr recordingmode count
attr source packetDropReasonIsDuplicateDetected(packetDropped)
attr title "packet drops: duplicate detected, count"
scalar lab7.host[0].wlan[0].mac packetDropDuplicateDetected:sum(packetBytes) 0
attr interpolationmode none
attr recordingmode sum(packetBytes)
attr source packetDropReasonIsDuplicateDetected(packetDropped)
attr title "packet drops: duplicate detected, sum(packetBytes)"
scalar lab7.host[0].wlan[0].mac packetDropOther:count 0
attr interpolationmode none
attr recordingmode count
attr source packetDropReasonIsOther(packetDropped)
attr title "packet drops: other, count"
scalar lab7.host[0].wlan[0].mac packetDropOther:sum(packetBytes) 0
attr interpolationmode none
attr recordingmode sum(packetBytes)
attr source packetDropReasonIsOther(packetDropped)
attr title "packet drops: other, sum(packetBytes)"
scalar lab7.host[0].wlan[0].mac linkBroken:count 0
attr interpolationmode none
attr recordingmode count
attr title "link breaks, count"
par lab7.host[0].wlan[0].radio.antenna typename "\"inet.physicallayer.wireless.common.antenna.IsotropicAntenna\""
par lab7.host[0].wlan[0].radio.antenna mobilityModule "\"^.^.^.mobility\""
par lab7.host[0].wlan[0].radio.antenna numAntennas 1
par lab7.host[0].wlan[0].radio.transmitter typename "\"inet.physicallayer.wireless.ieee80211.packetlevel.Ieee80211ScalarTransmitter\""
par lab7.host[0].wlan[0].radio.transmitter preambleDuration -1s
attr unit s
par lab7.host[0].wlan[0].radio.transmitter headerLength 192b
attr unit b
par lab7.host[0].wlan[0].radio.transmitter bitrate 2e+06bps
attr unit bps
par lab7.host[0].wlan[0].radio.transmitter power 0.002W
attr unit W
par lab7.host[0].wlan[0].radio.transmitter centerFrequency 2.412e+09Hz
attr unit Hz
par lab7.host[0].wlan[0].radio.transmitter bandwidth "nan Hz"
attr unit Hz
par lab7.host[0].wlan[0].radio.transmitter codeRate 1
par lab7.host[0].wlan[0].radio.transmitter modulation "\"BPSK\""
par lab7.host[0].wlan[0].radio.transmitter opMode "\"g(mixed)\""
attr enum a,b,g(erp),g(mixed),n(mixed-2.4Ghz),p,ac
par lab7.host[0].wlan[0].radio.transmitter bandName "\"2.4 GHz\""
attr enum "2.4 GHz,5 GHz,5 GHz (20 MHz),5 GHz (40 MHz),5 GHz (80 MHz),5 GHz (160 MHz),5.9 GHz"
par lab7.host[0].wlan[0].radio.transmitter channelNumber 0
par lab7.host[0].wlan[0].radio.receiver.errorModel typename "\"inet.physicallayer.wireless.ieee80211.packetlevel.errormodel.Ieee80211NistErrorModel\""
par lab7.host[0].wlan[0].radio.receiver.errorModel corruptionMode "\"packet\""
attr enum packet,chunk,byte,bit
par lab7.host[0].wlan[0].radio.receiver.errorModel snirMode "\"min\""
attr enum min,mean
par lab7.host[0].wlan[0].radio.receiver.errorModel snirOffset 0dB
attr unit dB
par lab7.host[0].wlan[0].radio.receiver typename "\"inet.physicallayer.wireless.ieee80211.packetlevel.Ieee80211ScalarReceiver\""
par lab7.host[0].wlan[0].radio.receiver snirThreshold 4dB
attr unit dB
par lab7.host[0].wlan[0].radio.receiver snirThresholdMode "\"min\""
attr enum min,mean
par lab7.host[0].wlan[0].radio.receiver energyDetection -85dBm
attr unit dBm
par lab7.host[0].wlan[0].radio.receiver sensitivity -85dBm
attr unit dBm
par lab7.host[0].wlan[0].radio.receiver centerFrequency 2.412e+09Hz
attr unit Hz
par lab7.host[0].wlan[0].radio.receiver bandwidth 2.2e+07Hz
attr unit Hz
par lab7.host[0].wlan[0].radio.receiver modulation "\"BPSK\""
par lab7.host[0].wlan[0].radio.receiver opMode "\"g(mixed)\""
attr enum a,b,g(erp),g(mixed),n(mixed-2.4Ghz),p,ac
par lab7.host[0].wlan[0].radio.receiver bandName "\"2.4 GHz\""
attr enum "2.4 GHz,5 GHz,5 GHz (20 MHz),5 GHz (40 MHz),5 GHz (80 MHz),5 GHz (160 MHz),5.9 GHz"
par lab7.host[0].wlan[0].radio.receiver channelNumber 0
par lab7.host[0].wlan[0].radio typename "\"inet.physicallayer.wireless.ieee80211.packetlevel.Ieee80211ScalarRadio\""
par lab7.host[0].wlan[0].radio radioMediumModule "\"radioMedium\""
par lab7.host[0].wlan[0].radio energySourceModule "\"\""
par lab7.host[0].wlan[0].radio initialRadioMode "\"off\""
attr enum off,sleep,receiver,transmitter,transceiver
par lab7.host[0].wlan[0].radio switchingTimes "\"ms 0 0 0 0 0 0 0 0 0 0 0 0 0 0 0 0 0 0 0 0 0 0 0 0 0\""
par lab7.host[0].wlan[0].radio sendRawBytes false
par lab7.host[0].wlan[0].radio separateTransmissionParts false
par lab7.host[0].wlan[0].radio separateReceptionParts false
par lab7.host[0].wlan[0].radio displayCommunicationRange false
par lab7.host[0].wlan[0].radio displayInterferenceRange false
par lab7.host[0].wlan[0].radio centerFrequency 2.412e+09Hz
attr unit Hz
par lab7.host[0].wlan[0].radio bandwidth "nan Hz"
attr unit Hz
par lab7.host[0].wlan[0].radio signalAnalogRepresentation "\"scalar\""
attr enum scalar,dimensional
par lab7.host[0].wlan[0].radio opMode "\"g(mixed)\""
attr enum a,b,g(erp),g(mixed),n(mixed-2.4Ghz),p,ac
par lab7.host[0].wlan[0].radio bandName "\"2.4 GHz\""
attr enum "2.4 GHz,5 GHz,5 GHz (20 MHz),5 GHz (40 MHz),5 GHz (80 MHz),5 GHz (160 MHz),5.9 GHz"
par lab7.host[0].wlan[0].radio channelNumber 0
par lab7.host[0].wlan[0].radio crcMode "\"declared\""
attr enum declared,computed
statistic lab7.host[0].wlan[0].radio minSnir:histogram
field count 5
field mean 25179.518236781
field stddev 10297.943358272
field min 20567.291677603
field max 43601.037620094
field sum 125897.5911839
field sqrsum 3594231242.8226
attr recordingmode histogram
attr source minimumSnir(packetSentToUpper)
attr title "Min SNIR"
bin	-inf	0
bin	14500	0
bin	15000	0
bin	15500	0
bin	16000	0
bin	16500	0
bin	17000	0
bin	17500	0
bin	18000	0
bin	18500	0
bin	19000	0
bin	19500	0
bin	20000	0
bin	20500	4
bin	21000	0
bin	21500	0
bin	22000	0
bin	22500	0
bin	23000	0
bin	23500	0
bin	24000	0
bin	24500	0
bin	25000	0
bin	25500	0
bin	26000	0
bin	26500	0
bin	27000	0
bin	27500	0
bin	28000	0
bin	28500	0
bin	29000	0
bin	29500	0
bin	30000	0
bin	30500	0
bin	31000	0
bin	31500	0
bin	32000	0
bin	32500	0
bin	33000	0
bin	33500	0
bin	34000	0
bin	34500	0
bin	35000	0
bin	35500	0
bin	36000	0
bin	36500	0
bin	37000	0
bin	37500	0
bin	38000	0
bin	38500	0
bin	39000	0
bin	39500	0
bin	40000	0
bin	40500	0
bin	41000	0
bin	41500	0
bin	42000	0
bin	42500	0
bin	43000	0
bin	43500	1
bin	44000	0
bin	44500	0
bin	45000	0
bin	45500	0
bin	46000	0
bin	46500	0
bin	47000	0
bin	47500	0
bin	48000	0
bin	48500	0
bin	49000	0
bin	49500	0
statistic lab7.host[0].wlan[0].radio packetErrorRate:histogram
field count 5
field mean 0
field stddev 0
field min 0
field max 0
field sum 0
field sqrsum 0
attr recordingmode histogram
attr source packetErrorRate(packetSentToUpper)
attr title "Packet error rate"
bin	-inf	0
bin	-0.5	0
bin	-0.48	0
bin	-0.46	0
bin	-0.44	0
bin	-0.42	0
bin	-0.4	0
bin	-0.38	0
bin	-0.36	0
bin	-0.34	0
bin	-0.32	0
bin	-0.3	0
bin	-0.28	0
bin	-0.26	0
bin	-0.24	0
bin	-0.22	0
bin	-0.2	0
bin	-0.18	0
bin	-0.16	0
bin	-0.14	0
bin	-0.12	0
bin	-0.1	0
bin	-0.08	0
bin	-0.06	0
bin	-0.04	0
bin	-0.02	0
bin	0	5
bin	0.02	0
bin	0.04	0
bin	0.06	0
bin	0.08	0
bin	0.1	0
bin	0.12	0
bin	0.14	0
bin	0.16	0
bin	0.18	0
bin	0.2	0
bin	0.22	0
bin	0.24	0
bin	0.26	0
bin	0.28	0
bin	0.3	0
bin	0.32	0
bin	0.34	0
bin	0.36	0
bin	0.38	0
bin	0.4	0
bin	0.42	0
bin	0.44	0
bin	0.46	0
bin	0.48	0
bin	0.5	0
statistic lab7.host[0].wlan[0].radio bitErrorRate:histogram
field count 0
field mean nan
field stddev nan
field min nan
field max nan
field sum 0
field sqrsum 0
attr recordingmode histogram
attr source bitErrorRate(packetSentToUpper)
attr title "Bit error rate"
bin	-inf	0
bin	0	0
bin	1	0
statistic lab7.host[0].wlan[0].radio symbolErrorRate:histogram
field count 0
field mean nan
field stddev nan
field min nan
field max nan
field sum 0
field sqrsum 0
attr recordingmode histogram
attr source symbolErrorRate(packetSentToUpper)
attr title "Symbol error rate"
bin	-inf	0
bin	0	0
bin	1	0
scalar lab7.host[0].wlan[0].radio transmissionState:count 18
attr interpolationmode sample-hold
attr recordingmode count
attr source transmissionStateChanged
attr title "Radio transmission state, count"
scalar lab7.host[0].wlan[0].radio receptionState:count 20
attr interpolationmode sample-hold
attr recordingmode count
attr source receptionStateChanged
attr title "Radio reception state, count"
scalar lab7.host[0].wlan[0].radio radioMode:count 12
attr interpolationmode sample-hold
attr recordingmode count
attr source radioModeChanged
attr title "Radio mode, count"
statistic lab7.host[0].wlan[0].radio radioChannel:histogram
field count 1
field mean 0
field stddev nan
field min 0
field max 0
field sum 0
field sqrsum 0
attr interpolationmode sample-hold
attr recordingmode histogram
attr source radioChannelChanged
attr title "Radio channel"
bin	-inf	0
bin	-0.5	0
bin	-0.48	0
bin	-0.46	0
bin	-0.44	0
bin	-0.42	0
bin	-0.4	0
bin	-0.38	0
bin	-0.36	0
bin	-0.34	0
bin	-0.32	0
bin	-0.3	0
bin	-0.28	0
bin	-0.26	0
bin	-0.24	0
bin	-0.22	0
bin	-0.2	0
bin	-0.18	0
bin	-0.16	0
bin	-0.14	0
bin	-0.12	0
bin	-0.1	0
bin	-0.08	0
bin	-0.06	0
bin	-0.04	0
bin	-0.02	0
bin	0	1
bin	0.02	0
bin	0.04	0
bin	0.06	0
bin	0.08	0
bin	0.1	0
bin	0.12	0
bin	0.14	0
bin	0.16	0
bin	0.18	0
bin	0.2	0
bin	0.22	0
bin	0.24	0
bin	0.26	0
bin	0.28	0
bin	0.3	0
bin	0.32	0
bin	0.34	0
bin	0.36	0
bin	0.38	0
bin	0.4	0
bin	0.42	0
bin	0.44	0
bin	0.46	0
bin	0.48	0
bin	0.5	0
par lab7.host[0].wlan[0] typename "\"inet.linklayer.ieee80211.Ieee80211Interface\""
par lab7.host[0].wlan[0] displayStringTextFormat "\"%a (%i)\\n%m\""
par lab7.host[0].wlan[0] recordPcap false
par lab7.host[0].wlan[0] numPcapRecorders 0
par lab7.host[0].wlan[0] interfaceTableModule "\"lab7.host[0].interfaceTable\""
par lab7.host[0].wlan[0] energySourceModule "\"\""
par lab7.host[0].wlan[0] opMode "\"g(mixed)\""
attr enum a,b,g(erp),g(mixed),n(mixed-2.4Ghz),p,ac
par lab7.host[0].wlan[0] address "\"0A-AA-00-00-00-01\""
attr mutable ""
par lab7.host[0].wlan[0] protocol "\"\""
par lab7.host[0].wlan[0] bitrate 2e+06bps
attr unit bps
scalar lab7.host[0].wlan[0] packetDropInterfaceDown:count 0
attr interpolationmode none
attr recordingmode count
attr source packetDropReasonIsInterfaceDown(packetDropped)
attr title "packet drops: interface down, count"
scalar lab7.host[0].wlan[0] packetDropInterfaceDown:sum(packetBytes) 0
attr interpolationmode none
attr recordingmode sum(packetBytes)
attr source packetDropReasonIsInterfaceDown(packetDropped)
attr title "packet drops: interface down, sum(packetBytes)"
scalar lab7.host[0].wlan[0] packetDropNoCarrier:count 0
attr interpolationmode none
attr recordingmode count
attr source packetDropReasonIsNoCarrier(packetDropped)
attr title "packet drops: no carrier, count"
scalar lab7.host[0].wlan[0] packetDropNoCarrier:sum(packetBytes) 0
attr interpolationmode none
attr recordingmode sum(packetBytes)
attr source packetDropReasonIsNoCarrier(packetDropped)
attr title "packet drops: no carrier, sum(packetBytes)"
par lab7.host[0].ipv4.transportIn.channel typename "\"ned.IdealChannel\""
par lab7.host[0].ipv4.up.out[0].channel typename "\"ned.IdealChannel\""
par lab7.host[0].ipv4.lp.out[2].channel typename "\"ned.IdealChannel\""
par lab7.host[0].ipv4.ifIn.channel typename "\"ned.IdealChannel\""
par lab7.host[0].ipv4.configurator typename "\"inet.networklayer.configurator.ipv4.Ipv4NodeConfigurator\""
par lab7.host[0].ipv4.configurator interfaceTableModule "\"lab7.host[0].interfaceTable\""
par lab7.host[0].ipv4.configurator routingTableModule "\"lab7.host[0].ipv4.routingTable\""
par lab7.host[0].ipv4.configurator networkConfiguratorModule "\"configurator\""
par lab7.host[0].ipv4.configurator configureRoutingTable true
par lab7.host[0].ipv4.routingTable typename "\"inet.networklayer.ipv4.Ipv4RoutingTable\""
par lab7.host[0].ipv4.routingTable interfaceTableModule "\"lab7.host[0].interfaceTable\""
par lab7.host[0].ipv4.routingTable routerId "\"auto\""
par lab7.host[0].ipv4.routingTable netmaskRoutes "\"*\""
par lab7.host[0].ipv4.routingTable forwarding true
par lab7.host[0].ipv4.routingTable multicastForwarding false
par lab7.host[0].ipv4.routingTable useAdminDist false
par lab7.host[0].ipv4.routingTable routingFile "\"\""
par lab7.host[0].ipv4.natTable typename "\"inet.networklayer.ipv4.Ipv4NatTable\""
par lab7.host[0].ipv4.natTable networkProtocolModule "\"^.ip\""
par lab7.host[0].ipv4.natTable config "<config/> at content:1"
par lab7.host[0].ipv4.up typename "\"inet.common.MessageDispatcher\""
par lab7.host[0].ipv4.up displayStringTextFormat "\"processed %p pk (%l)\""
par lab7.host[0].ipv4.up forwardServiceRegistration true
par lab7.host[0].ipv4.up forwardProtocolRegistration true
par lab7.host[0].ipv4.igmp typename "\"inet.networklayer.ipv4.Igmpv2\""
par lab7.host[0].ipv4.igmp interfaceTableModule "\"lab7.host[0].interfaceTable\""
par lab7.host[0].ipv4.igmp routingTableModule "\"lab7.host[0].ipv4.routingTable\""
par lab7.host[0].ipv4.igmp crcMode "\"declared\""
attr enum declared,computed
par lab7.host[0].ipv4.igmp enabled true
par lab7.host[0].ipv4.igmp robustnessVariable 2
par lab7.host[0].ipv4.igmp queryInterval 125s
attr unit s
par lab7.host[0].ipv4.igmp queryResponseInterval 10s
attr unit s
par lab7.host[0].ipv4.igmp groupMembershipInterval 260s
attr unit s
par lab7.host[0].ipv4.igmp otherQuerierPresentInterval 255s
attr unit s
par lab7.host[0].ipv4.igmp startupQueryInterval 31.25s
attr unit s
par lab7.host[0].ipv4.igmp startupQueryCount 2
par lab7.host[0].ipv4.igmp lastMemberQueryInterval 1s
attr unit s
par lab7.host[0].ipv4.igmp lastMemberQueryCount 2
par lab7.host[0].ipv4.igmp unsolicitedReportInterval 10s
attr unit s
par lab7.host[0].ipv4.icmp typename "\"inet.networklayer.ipv4.Icmp\""
par lab7.host[0].ipv4.icmp interfaceTableModule "\"lab7.host[0].interfaceTable\""
par lab7.host[0].ipv4.icmp routingTableModule "\"lab7.host[0].ipv4.routingTable\""
par lab7.host[0].ipv4.icmp crcMode "\"declared\""
attr enum declared,computed
attr mutable ""
par lab7.host[0].ipv4.icmp quoteLength 8B
attr mutable ""
attr unit B
par lab7.host[0].ipv4.mp typename "\"inet.common.MessageDispatcher\""
par lab7.host[0].ipv4.mp displayStringTextFormat "\"processed %p pk (%l)\""
par lab7.host[0].ipv4.mp forwardServiceRegistration true
par lab7.host[0].ipv4.mp forwardProtocolRegistration true
par lab7.host[0].ipv4.ip typename "\"inet.networklayer.ipv4.Ipv4\""
par lab7.host[0].ipv4.ip interfaceTableModule "\"lab7.host[0].interfaceTable\""
par lab7.host[0].ipv4.ip routingTableModule "\"lab7.host[0].ipv4.routingTable\""
par lab7.host[0].ipv4.ip arpModule "\"lab7.host[0].ipv4.arp\""
par lab7.host[0].ipv4.ip icmpModule "\"lab7.host[0].ipv4.icmp\""
par lab7.host[0].ipv4.ip crcMode "\"declared\""
attr enum declared,computed
par lab7.host[0].ipv4.ip timeToLive 32
par lab7.host[0].ipv4.ip multicastTimeToLive 32
par lab7.host[0].ipv4.ip fragmentTimeout 60s
attr unit s
par lab7.host[0].ipv4.ip limitedBroadcast false
par lab7.host[0].ipv4.ip directBroadcastInterfaces "\"\""
scalar lab7.host[0].ipv4.ip packetDropAddressResolutionFailed:count 0
attr interpolationmode none
attr recordingmode count
attr source packetDropReasonIsAddressResolutionFailed(packetDropped)
attr title "packet drop: address resolution failed, count"
scalar lab7.host[0].ipv4.ip packetDropAddressResolutionFailed:sum(packetBytes) 0
attr interpolationmode none
attr recordingmode sum(packetBytes)
attr source packetDropReasonIsAddressResolutionFailed(packetDropped)
attr title "packet drop: address resolution failed, sum(packetBytes)"
scalar lab7.host[0].ipv4.ip packetDropHopLimitReached:count 0
attr interpolationmode none
attr recordingmode count
attr source packetDropReasonIsHopLimitReached(packetDropped)
attr title "packet drop: hop limit reached, count"
scalar lab7.host[0].ipv4.ip packetDropHopLimitReached:sum(packetBytes) 0
attr interpolationmode none
attr recordingmode sum(packetBytes)
attr source packetDropReasonIsHopLimitReached(packetDropped)
attr title "packet drop: hop limit reached, sum(packetBytes)"
scalar lab7.host[0].ipv4.ip packetDropForwardingDisabled:count 0
attr interpolationmode none
attr recordingmode count
attr source packetDropReasonIsForwardingDisabled(packetDropped)
attr title "packet drop: forwarding disabled, count"
scalar lab7.host[0].ipv4.ip packetDropForwardingDisabled:sum(packetBytes) 0
attr interpolationmode none
attr recordingmode sum(packetBytes)
attr source packetDropReasonIsForwardingDisabled(packetDropped)
attr title "packet drop: forwarding disabled, sum(packetBytes)"
scalar lab7.host[0].ipv4.ip packetDropNoInterfaceFound:count 0
attr interpolationmode none
attr recordingmode count
attr source packetDropReasonIsNoInterfaceFound(packetDropped)
attr title "packet drop: no interface found, count"
scalar lab7.host[0].ipv4.ip packetDropNoInterfaceFound:sum(packetBytes) 0
attr interpolationmode none
attr recordingmode sum(packetBytes)
attr source packetDropReasonIsNoInterfaceFound(packetDropped)
attr title "packet drop: no interface found, sum(packetBytes)"
scalar lab7.host[0].ipv4.ip packetDropNoRouteFound:count 0
attr interpolationmode none
attr recordingmode count
attr source packetDropReasonIsNoRouteFound(packetDropped)
attr title "packet drop: no route found, count"
scalar lab7.host[0].ipv4.ip packetDropNoRouteFound:sum(packetBytes) 0
attr interpolationmode none
attr recordingmode sum(packetBytes)
attr source packetDropReasonIsNoRouteFound(packetDropped)
attr title "packet drop: no route found, sum(packetBytes)"
scalar lab7.host[0].ipv4.ip packetDropUndefined:count 0
attr interpolationmode none
attr recordingmode count
attr source packetDropReasonIsUndefined(packetDropped)
attr title "packet drop: undefined, count"
scalar lab7.host[0].ipv4.ip packetDropUndefined:sum(packetBytes) 0
attr interpolationmode none
attr recordingmode sum(packetBytes)
attr source packetDropReasonIsUndefined(packetDropped)
attr title "packet drop: undefined, sum(packetBytes)"
par lab7.host[0].ipv4.arp typename "\"inet.networklayer.arp.ipv4.Arp\""
par lab7.host[0].ipv4.arp interfaceTableModule "\"lab7.host[0].interfaceTable\""
par lab7.host[0].ipv4.arp routingTableModule "\"lab7.host[0].ipv4.routingTable\""
par lab7.host[0].ipv4.arp retryTimeout 1s
attr unit s
par lab7.host[0].ipv4.arp retryCount 3
par lab7.host[0].ipv4.arp cacheTimeout 120s
attr unit s
par lab7.host[0].ipv4.arp proxyArpInterfaces "\"\""
scalar lab7.host[0].ipv4.arp arpReplySent:count 1
attr recordingmode count
attr source arpReplySent
attr title "ARP replies sent, count"
scalar lab7.host[0].ipv4.arp arpReplySent:sum(packetBytes) 28
attr recordingmode sum(packetBytes)
attr source arpReplySent
attr title "ARP replies sent, sum(packetBytes)"
scalar lab7.host[0].ipv4.arp arpRequestSent:count 0
attr recordingmode count
attr source arpRequestSent
attr title "ARP request sent, count"
scalar lab7.host[0].ipv4.arp arpRequestSent:sum(packetBytes) 0
attr recordingmode sum(packetBytes)
attr source arpRequestSent
attr title "ARP request sent, sum(packetBytes)"
scalar lab7.host[0].ipv4.arp arpResolutionFailed:count 0
attr recordingmode count
attr title "ARP failed resolutions, count"
scalar lab7.host[0].ipv4.arp arpResolutionCompleted:count 1
attr recordingmode count
attr title "ARP completed resolutions, count"
scalar lab7.host[0].ipv4.arp arpResolutionInitiated:count 0
attr recordingmode count
attr title "ARP initiated resolutions, count"
par lab7.host[0].ipv4.lp typename "\"inet.common.MessageDispatcher\""
par lab7.host[0].ipv4.lp displayStringTextFormat "\"processed %p pk (%l)\""
par lab7.host[0].ipv4.lp forwardServiceRegistration true
par lab7.host[0].ipv4.lp forwardProtocolRegistration true
par lab7.host[0].ipv4 typename "\"inet.networklayer.ipv4.Ipv4NetworkLayer\""
par lab7.host[0].ipv4 forwarding true
par lab7.host[0].ipv4 multicastForwarding false
par lab7.host[0].ipv4 interfaceTableModule "\"lab7.host[0].interfaceTable\""
par lab7.host[0].ipv4 displayStringTextFormat "\"%i\""
par lab7.host[0].nl typename "\"inet.common.MessageDispatcher\""
par lab7.host[0].nl displayStringTextFormat "\"processed %p pk (%l)\""
par lab7.host[0].nl forwardServiceRegistration true
par lab7.host[0].nl forwardProtocolRegistration true
par lab7.host[0].udp typename "\"inet.transportlayer.udp.Udp\""
par lab7.host[0].udp interfaceTableModule "\"lab7.host[0].interfaceTable\""
par lab7.host[0].udp icmpModule "\"^.ipv4.icmp\""
par lab7.host[0].udp icmpv6Module "\"^.ipv6.icmpv6\""
par lab7.host[0].udp crcMode "\"declared\""
attr enum disabled,declared,computed
par lab7.host[0].udp defaultMulticastLoop true
scalar lab7.host[0].udp packetReceived:count 0
attr interpolationmode none
attr recordingmode count
attr source packetReceived
attr title "packets received, count"
scalar lab7.host[0].udp packetReceived:sum(packetBytes) 0
attr interpolationmode none
attr recordingmode sum(packetBytes)
attr source packetReceived
attr title "packets received, sum(packetBytes)"
scalar lab7.host[0].udp packetSent:count 0
attr interpolationmode none
attr recordingmode count
attr source packetSent
attr title "packets sent, count"
scalar lab7.host[0].udp packetSent:sum(packetBytes) 0
attr interpolationmode none
attr recordingmode sum(packetBytes)
attr source packetSent
attr title "packets sent, sum(packetBytes)"
scalar lab7.host[0].udp passedUpPk:count 0
attr interpolationmode none
attr recordingmode count
attr source packetSentToUpper
attr title "packets passed up, count"
scalar lab7.host[0].udp droppedPkWrongPort:count 0
attr interpolationmode none
attr recordingmode count
attr source packetDropReasonIsNoPortFound(packetDropped)
attr title "packets dropped (wrong port), count"
scalar lab7.host[0].udp droppedPkBadChecksum:count 0
attr interpolationmode none
attr recordingmode count
attr source packetDropReasonIsIncorrectlyReceived(packetDropped)
attr title "packets dropped (checksum error), count"
par lab7.host[0].tcp typename "\"inet.transportlayer.tcp.Tcp\""
par lab7.host[0].tcp crcMode "\"declared\""
attr enum declared,computed
par lab7.host[0].tcp advertisedWindow 7504
par lab7.host[0].tcp delayedAcksEnabled false
par lab7.host[0].tcp nagleEnabled true
par lab7.host[0].tcp limitedTransmitEnabled false
par lab7.host[0].tcp increasedIWEnabled false
par lab7.host[0].tcp sackSupport false
par lab7.host[0].tcp windowScalingSupport false
par lab7.host[0].tcp windowScalingFactor -1
par lab7.host[0].tcp timestampSupport false
par lab7.host[0].tcp mss 536
par lab7.host[0].tcp msl 120s
attr unit s
par lab7.host[0].tcp tcpAlgorithmClass "\"TcpReno\""
attr enum TcpVegas,TcpWestwood,TcpNewReno,TcpReno,TcpTahoe,TcpNoCongestionControl
par lab7.host[0].tcp useDataNotification false
par lab7.host[0].tcp dupthresh 3
par lab7.host[0].tcp initialSsthresh 4294967295
par lab7.host[0].tcp stopOperationExtraTime 0s
attr unit s
par lab7.host[0].tcp stopOperationTimeout 2s
attr unit s
par lab7.host[0].tcp ecnWillingness false
par lab7.host[0].tcp dctcpGamma 0.0625
par lab7.host[0].tn typename "\"inet.common.MessageDispatcher\""
par lab7.host[0].tn displayStringTextFormat "\"processed %p pk (%l)\""
par lab7.host[0].tn forwardServiceRegistration true
par lab7.host[0].tn forwardProtocolRegistration true
par lab7.host[0].at typename "\"inet.common.MessageDispatcher\""
par lab7.host[0].at displayStringTextFormat "\"processed %p pk (%l)\""
par lab7.host[0].at forwardServiceRegistration true
par lab7.host[0].at forwardProtocolRegistration true
par lab7.host[0] typename "\"inet.node.inet.AdhocHost\""
par lab7.host[0] hasStatus false
par lab7.host[0] osgModel "\"\""
par lab7.host[0] osgModelColor "\"\""
par lab7.host[0] canvasImage "\"\""
par lab7.host[0] canvasImageColor "\"\""
par lab7.host[0] recordPcap false
par lab7.host[0] numPcapRecorders 0
par lab7.host[0] numLoInterfaces 1
par lab7.host[0] numWlanInterfaces 1
par lab7.host[0] numEthInterfaces 0
par lab7.host[0] numPppInterfaces 0
par lab7.host[0] numTunInterfaces 0
par lab7.host[0] numVirtInterfaces 0
par lab7.host[0] fcsMode "\"declared\""
attr enum declared,computed
par lab7.host[0] hasIpv4 true
par lab7.host[0] hasIpv6 false
par lab7.host[0] hasGn false
par lab7.host[0] forwarding true
par lab7.host[0] multicastForwarding false
par lab7.host[0] hasUdp true
par lab7.host[0] hasTcp true
par lab7.host[0] hasSctp false
par lab7.host[0] numApps 0
par lab7.host[1].radioIn[0].channel typename "\"ned.IdealChannel\""
par lab7.host[1].mobility typename "\"inet.mobility.single.MassMobility\""
par lab7.host[1].mobility subjectModule "\"^\""
par lab7.host[1].mobility coordinateSystemModule "\"\""
par lab7.host[1].mobility displayStringTextFormat "\"p: %p\\nv: %v\""
attr mutable ""
par lab7.host[1].mobility updateDisplayString true
par lab7.host[1].mobility constraintAreaMinX 0m
attr unit m
par lab7.host[1].mobility constraintAreaMinY 0m
attr unit m
par lab7.host[1].mobility constraintAreaMinZ 0m
attr unit m
par lab7.host[1].mobility constraintAreaMaxX 600m
attr unit m
par lab7.host[1].mobility constraintAreaMaxY 400m
attr unit m
par lab7.host[1].mobility constraintAreaMaxZ 0m
attr unit m
par lab7.host[1].mobility updateInterval 0.1s
attr unit s
par lab7.host[1].mobility faceForward true
par lab7.host[1].mobility initialX 0.0686286m
attr unit m
par lab7.host[1].mobility initialY 51.2498m
attr unit m
par lab7.host[1].mobility initialZ 0m
attr unit m
par lab7.host[1].mobility initialMovementHeading 359.655deg
attr unit deg
par lab7.host[1].mobility initialMovementElevation 0deg
attr unit deg
par lab7.host[1].mobility initFromDisplayString false
par lab7.host[1].mobility changeInterval "truncnormal(2s, 0.5s)"
attr unit s
par lab7.host[1].mobility angleDelta "normal(0deg, 30deg)"
attr unit deg
par lab7.host[1].mobility rotationAxisAngle 0deg
attr unit deg
par lab7.host[1].mobility speed "truncnormal(20mps, 8mps)"
attr mutable ""
attr unit mps
par lab7.host[1].interfaceTable typename "\"inet.networklayer.common.InterfaceTable\""
par lab7.host[1].interfaceTable displayAddresses false
par lab7.host[1].cb typename "\"inet.common.MessageDispatcher\""
par lab7.host[1].cb displayStringTextFormat "\"processed %p pk (%l)\""
par lab7.host[1].cb forwardServiceRegistration true
par lab7.host[1].cb forwardProtocolRegistration true
par lab7.host[1].bl typename "\"inet.common.MessageDispatcher\""
par lab7.host[1].bl displayStringTextFormat "\"processed %p pk (%l)\""
par lab7.host[1].bl forwardServiceRegistration true
par lab7.host[1].bl forwardProtocolRegistration true
par lab7.host[1].li typename "\"inet.common.MessageDispatcher\""
par lab7.host[1].li displayStringTextFormat "\"processed %p pk (%l)\""
par lab7.host[1].li forwardServiceRegistration true
par lab7.host[1].li forwardProtocolRegistration true
par lab7.host[1].lo[0].upperLayerIn.channel typename "\"ned.IdealChannel\""
par lab7.host[1].lo[0].lo.upperLayerOut.channel typename "\"ned.IdealChannel\""
par lab7.host[1].lo[0].lo typename "\"inet.linklayer.loopback.Loopback\""
par lab7.host[1].lo[0].lo interfaceTableModule "\"lab7.host[1].interfaceTable\""
par lab7.host[1].lo[0].lo mtu 4470B
attr unit B
scalar lab7.host[1].lo[0].lo rcvdPkFromHl:count 0
attr interpolationmode none
attr recordingmode count
attr source packetReceivedFromUpper
attr title "packets received from higher layer, count"
scalar lab7.host[1].lo[0].lo rcvdPkFromHl:sum(packetBytes) 0
attr interpolationmode none
attr recordingmode sum(packetBytes)
attr source packetReceivedFromUpper
attr title "packets received from higher layer, sum(packetBytes)"
scalar lab7.host[1].lo[0].lo passedUpPk:count 0
attr interpolationmode none
attr recordingmode count
attr source packetSentToUpper
attr title "packets passed to higher layer, count"
scalar lab7.host[1].lo[0].lo passedUpPk:sum(packetBytes) 0
attr interpolationmode none
attr recordingmode sum(packetBytes)
attr source packetSentToUpper
attr title "packets passed to higher layer, sum(packetBytes)"
par lab7.host[1].lo[0] typename "\"inet.linklayer.loopback.LoopbackInterface\""
par lab7.host[1].lo[0] displayStringTextFormat "\"%a (%i)\\n%m\""
par lab7.host[1].lo[0] recordPcap false
par lab7.host[1].lo[0] numPcapRecorders 0
par lab7.host[1].lo[0] interfaceTableModule "\"lab7.host[1].interfaceTable\""
scalar lab7.host[1].lo[0] packetDropInterfaceDown:count 0
attr interpolationmode none
attr recordingmode count
attr source packetDropReasonIsInterfaceDown(packetDropped)
attr title "packet drops: interface down, count"
scalar lab7.host[1].lo[0] packetDropInterfaceDown:sum(packetBytes) 0
attr interpolationmode none
attr recordingmode sum(packetBytes)
attr source packetDropReasonIsInterfaceDown(packetDropped)
attr title "packet drops: interface down, sum(packetBytes)"
scalar lab7.host[1].lo[0] packetDropNoCarrier:count 0
attr interpolationmode none
attr recordingmode count
attr source packetDropReasonIsNoCarrier(packetDropped)
attr title "packet drops: no carrier, count"
scalar lab7.host[1].lo[0] packetDropNoCarrier:sum(packetBytes) 0
attr interpolationmode none
attr recordingmode sum(packetBytes)
attr source packetDropReasonIsNoCarrier(packetDropped)
attr title "packet drops: no carrier, sum(packetBytes)"
par lab7.host[1].wlan[0].radioIn.channel typename "\"ned.IdealChannel\""
par lab7.host[1].wlan[0].llc.upperLayerOut.channel typename "\"ned.IdealChannel\""
par lab7.host[1].wlan[0].upperLayerIn.channel typename "\"ned.IdealChannel\""
par lab7.host[1].wlan[0].mib typename "\"inet.linklayer.ieee80211.mib.Ieee80211Mib\""
par lab7.host[1].wlan[0].llc typename "\"inet.linklayer.ieee80211.llc.Ieee80211LlcLpd\""
par lab7.host[1].wlan[0].llc registerProtocol false
par lab7.host[1].wlan[0].mgmt typename "\"inet.linklayer.ieee80211.mgmt.Ieee80211MgmtAdhoc\""
par lab7.host[1].wlan[0].mgmt mibModule "\"lab7.host[1].wlan[0].mib\""
par lab7.host[1].wlan[0].mgmt macModule "\"lab7.host[1].wlan[0].mac\""
par lab7.host[1].wlan[0].mgmt interfaceTableModule "\"lab7.host[1].interfaceTable\""
par lab7.host[1].wlan[0].mac.dcf.channelAccess.pendingQueue typename "\"inet.linklayer.ieee80211.mac.queue.PendingQueue\""
par lab7.host[1].wlan[0].mac.dcf.channelAccess.pendingQueue displayStringTextFormat "\"contains %p pk (%l) pushed %u\\npulled %o removed %r dropped %d\""
par lab7.host[1].wlan[0].mac.dcf.channelAccess.pendingQueue packetCapacity 100
par lab7.host[1].wlan[0].mac.dcf.channelAccess.pendingQueue dataCapacity -1b
attr unit b
par lab7.host[1].wlan[0].mac.dcf.channelAccess.pendingQueue dropperClass "\"inet::queueing::PacketAtCollectionEndDropper\""
par lab7.host[1].wlan[0].mac.dcf.channelAccess.pendingQueue comparatorClass "\"inet::ieee80211::MgmtOverDataComparator\""
par lab7.host[1].wlan[0].mac.dcf.channelAccess.pendingQueue bufferModule "\"\""
scalar lab7.host[1].wlan[0].mac.dcf.channelAccess.pendingQueue queueLength:last 0
attr autoWarmupFilter false
attr interpolationmode sample-hold
attr recordingmode last
attr source "warmup(atomic(constant0(packetPushEnded) + count(packetPushStarted) - count(packetPulled) - count(packetRemoved) - count(packetDropped)))"
attr title "queue length, last"
attr unit pk
scalar lab7.host[1].wlan[0].mac.dcf.channelAccess.pendingQueue queueLength:max 1
attr autoWarmupFilter false
attr interpolationmode sample-hold
attr recordingmode max
attr source "warmup(atomic(constant0(packetPushEnded) + count(packetPushStarted) - count(packetPulled) - count(packetRemoved) - count(packetDropped)))"
attr title "queue length, max"
attr unit pk
scalar lab7.host[1].wlan[0].mac.dcf.channelAccess.pendingQueue queueLength:timeavg 0
attr autoWarmupFilter false
attr interpolationmode sample-hold
attr recordingmode timeavg
attr source "warmup(atomic(constant0(packetPushEnded) + count(packetPushStarted) - count(packetPulled) - count(packetRemoved) - count(packetDropped)))"
attr title "queue length, timeavg"
attr unit pk
scalar lab7.host[1].wlan[0].mac.dcf.channelAccess.pendingQueue queueBitLength:last 0
attr autoWarmupFilter false
attr interpolationmode sample-hold
attr recordingmode last
attr source "warmup(atomic(constant0(packetPushEnded) + sum(packetLength(packetPushStarted)) - sum(packetLength(packetPulled)) - sum(packetLength(packetRemoved)) - sum(packetLength(packetDropped))))"
attr title "queue bit length, last"
attr unit b
scalar lab7.host[1].wlan[0].mac.dcf.channelAccess.pendingQueue queueBitLength:max 512
attr autoWarmupFilter false
attr interpolationmode sample-hold
attr recordingmode max
attr source "warmup(atomic(constant0(packetPushEnded) + sum(packetLength(packetPushStarted)) - sum(packetLength(packetPulled)) - sum(packetLength(packetRemoved)) - sum(packetLength(packetDropped))))"
attr title "queue bit length, max"
attr unit b
scalar lab7.host[1].wlan[0].mac.dcf.channelAccess.pendingQueue queueBitLength:timeavg 0
attr autoWarmupFilter false
attr interpolationmode sample-hold
attr recordingmode timeavg
attr source "warmup(atomic(constant0(packetPushEnded) + sum(packetLength(packetPushStarted)) - sum(packetLength(packetPulled)) - sum(packetLength(packetRemoved)) - sum(packetLength(packetDropped))))"
attr title "queue bit length, timeavg"
attr unit b
statistic lab7.host[1].wlan[0].mac.dcf.channelAccess.pendingQueue queueingTime:histogram
field count 1
field mean 0
field stddev nan
field min 0
field max 0
field sum 0
field sqrsum 0
attr interpolationmode none
attr recordingmode histogram
attr source queueingTime(packetPulled)
attr title "queueing times"
attr unit s
bin	-inf	0
bin	-0.5	0
bin	-0.48	0
bin	-0.46	0
bin	-0.44	0
bin	-0.42	0
bin	-0.4	0
bin	-0.38	0
bin	-0.36	0
bin	-0.34	0
bin	-0.32	0
bin	-0.3	0
bin	-0.28	0
bin	-0.26	0
bin	-0.24	0
bin	-0.22	0
bin	-0.2	0
bin	-0.18	0
bin	-0.16	0
bin	-0.14	0
bin	-0.12	0
bin	-0.1	0
bin	-0.08	0
bin	-0.06	0
bin	-0.04	0
bin	-0.02	0
bin	0	1
bin	0.02	0
bin	0.04	0
bin	0.06	0
bin	0.08	0
bin	0.1	0
bin	0.12	0
bin	0.14	0
bin	0.16	0
bin	0.18	0
bin	0.2	0
bin	0.22	0
bin	0.24	0
bin	0.26	0
bin	0.28	0
bin	0.3	0
bin	0.32	0
bin	0.34	0
bin	0.36	0
bin	0.38	0
bin	0.4	0
bin	0.42	0
bin	0.44	0
bin	0.46	0
bin	0.48	0
bin	0.5	0
scalar lab7.host[1].wlan[0].mac.dcf.channelAccess.pendingQueue outgoingPackets:count 1
attr recordingmode count
attr source packetPulled
attr title "outgoing packets, count"
attr unit pk
scalar lab7.host[1].wlan[0].mac.dcf.channelAccess.pendingQueue outgoingPacketLengths:sum 512
attr interpolationmode none
attr recordingmode sum
attr source packetLength(packetPulled)
attr title "outgoing packet lengths, sum"
attr unit b
statistic lab7.host[1].wlan[0].mac.dcf.channelAccess.pendingQueue outgoingPacketLengths:histogram
field count 1
field mean 512
field stddev nan
field min 512
field max 512
field sum 512
field sqrsum 262144
attr interpolationmode none
attr recordingmode histogram
attr source packetLength(packetPulled)
attr title "outgoing packet lengths"
attr unit b
bin	-inf	0
bin	511	0
bin	512	1
bin	513	0
statistic lab7.host[1].wlan[0].mac.dcf.channelAccess.pendingQueue flowQueueingTime:histogram
field count 0
field mean nan
field stddev nan
field min nan
field max nan
field sum 0
field sqrsum 0
attr interpolationmode none
attr recordingmode histogram
attr source queueingTime(demuxFlow(packetPulled))
attr title "flow queueing times"
attr unit s
bin	-inf	0
bin	0	0
bin	1	0
scalar lab7.host[1].wlan[0].mac.dcf.channelAccess.pendingQueue incomingPackets:count 1
attr recordingmode count
attr source packetPushStarted
attr title "incoming packets, count"
attr unit pk
scalar lab7.host[1].wlan[0].mac.dcf.channelAccess.pendingQueue incomingPacketLengths:sum 512
[...]
bin	-0.46	0
bin	-0.44	0
bin	-0.42	0
bin	-0.4	0
bin	-0.38	0
bin	-0.36	0
bin	-0.34	0
bin	-0.32	0
bin	-0.3	0
bin	-0.28	0
bin	-0.26	0
bin	-0.24	0
bin	-0.22	0
bin	-0.2	0
bin	-0.18	0
bin	-0.16	0
bin	-0.14	0
bin	-0.12	0
bin	-0.1	0
bin	-0.08	0
bin	-0.06	0
bin	-0.04	0
bin	-0.02	0
bin	0	1
bin	0.02	0
bin	0.04	0
bin	0.06	0
bin	0.08	0
bin	0.1	0
bin	0.12	0
bin	0.14	0
bin	0.16	0
bin	0.18	0
bin	0.2	0
bin	0.22	0
bin	0.24	0
bin	0.26	0
bin	0.28	0
bin	0.3	0
bin	0.32	0
bin	0.34	0
bin	0.36	0
bin	0.38	0
bin	0.4	0
bin	0.42	0
bin	0.44	0
bin	0.46	0
bin	0.48	0
bin	0.5	0
par lab7.host[4].wlan[0] typename "\"inet.linklayer.ieee80211.Ieee80211Interface\""
par lab7.host[4].wlan[0] displayStringTextFormat "\"%a (%i)\\n%m\""
par lab7.host[4].wlan[0] recordPcap false
par lab7.host[4].wlan[0] numPcapRecorders 0
par lab7.host[4].wlan[0] interfaceTableModule "\"lab7.host[4].interfaceTable\""
par lab7.host[4].wlan[0] energySourceModule "\"\""
par lab7.host[4].wlan[0] opMode "\"g(mixed)\""
attr enum a,b,g(erp),g(mixed),n(mixed-2.4Ghz),p,ac
par lab7.host[4].wlan[0] address "\"0A-AA-00-00-00-05\""
attr mutable ""
par lab7.host[4].wlan[0] protocol "\"\""
par lab7.host[4].wlan[0] bitrate 2e+06bps
attr unit bps
scalar lab7.host[4].wlan[0] packetDropInterfaceDown:count 0
attr interpolationmode none
attr recordingmode count
attr source packetDropReasonIsInterfaceDown(packetDropped)
attr title "packet drops: interface down, count"
scalar lab7.host[4].wlan[0] packetDropInterfaceDown:sum(packetBytes) 0
attr interpolationmode none
attr recordingmode sum(packetBytes)
attr source packetDropReasonIsInterfaceDown(packetDropped)
attr title "packet drops: interface down, sum(packetBytes)"
scalar lab7.host[4].wlan[0] packetDropNoCarrier:count 0
attr interpolationmode none
attr recordingmode count
attr source packetDropReasonIsNoCarrier(packetDropped)
attr title "packet drops: no carrier, count"
scalar lab7.host[4].wlan[0] packetDropNoCarrier:sum(packetBytes) 0
attr interpolationmode none
attr recordingmode sum(packetBytes)
attr source packetDropReasonIsNoCarrier(packetDropped)
attr title "packet drops: no carrier, sum(packetBytes)"
par lab7.host[4].ipv4.transportIn.channel typename "\"ned.IdealChannel\""
par lab7.host[4].ipv4.up.out[0].channel typename "\"ned.IdealChannel\""
par lab7.host[4].ipv4.lp.out[2].channel typename "\"ned.IdealChannel\""
par lab7.host[4].ipv4.ifIn.channel typename "\"ned.IdealChannel\""
par lab7.host[4].ipv4.configurator typename "\"inet.networklayer.configurator.ipv4.Ipv4NodeConfigurator\""
par lab7.host[4].ipv4.configurator interfaceTableModule "\"lab7.host[4].interfaceTable\""
par lab7.host[4].ipv4.configurator routingTableModule "\"lab7.host[4].ipv4.routingTable\""
par lab7.host[4].ipv4.configurator networkConfiguratorModule "\"configurator\""
par lab7.host[4].ipv4.configurator configureRoutingTable true
par lab7.host[4].ipv4.routingTable typename "\"inet.networklayer.ipv4.Ipv4RoutingTable\""
par lab7.host[4].ipv4.routingTable interfaceTableModule "\"lab7.host[4].interfaceTable\""
par lab7.host[4].ipv4.routingTable routerId "\"auto\""
par lab7.host[4].ipv4.routingTable netmaskRoutes "\"*\""
par lab7.host[4].ipv4.routingTable forwarding true
par lab7.host[4].ipv4.routingTable multicastForwarding false
par lab7.host[4].ipv4.routingTable useAdminDist false
par lab7.host[4].ipv4.routingTable routingFile "\"\""
par lab7.host[4].ipv4.natTable typename "\"inet.networklayer.ipv4.Ipv4NatTable\""
par lab7.host[4].ipv4.natTable networkProtocolModule "\"^.ip\""
par lab7.host[4].ipv4.natTable config "<config/> at content:1"
par lab7.host[4].ipv4.up typename "\"inet.common.MessageDispatcher\""
par lab7.host[4].ipv4.up displayStringTextFormat "\"processed %p pk (%l)\""
par lab7.host[4].ipv4.up forwardServiceRegistration true
par lab7.host[4].ipv4.up forwardProtocolRegistration true
par lab7.host[4].ipv4.igmp typename "\"inet.networklayer.ipv4.Igmpv2\""
par lab7.host[4].ipv4.igmp interfaceTableModule "\"lab7.host[4].interfaceTable\""
par lab7.host[4].ipv4.igmp routingTableModule "\"lab7.host[4].ipv4.routingTable\""
par lab7.host[4].ipv4.igmp crcMode "\"declared\""
attr enum declared,computed
par lab7.host[4].ipv4.igmp enabled true
par lab7.host[4].ipv4.igmp robustnessVariable 2
par lab7.host[4].ipv4.igmp queryInterval 125s
attr unit s
par lab7.host[4].ipv4.igmp queryResponseInterval 10s
attr unit s
par lab7.host[4].ipv4.igmp groupMembershipInterval 260s
attr unit s
par lab7.host[4].ipv4.igmp otherQuerierPresentInterval 255s
attr unit s
par lab7.host[4].ipv4.igmp startupQueryInterval 31.25s
attr unit s
par lab7.host[4].ipv4.igmp startupQueryCount 2
par lab7.host[4].ipv4.igmp lastMemberQueryInterval 1s
attr unit s
par lab7.host[4].ipv4.igmp lastMemberQueryCount 2
par lab7.host[4].ipv4.igmp unsolicitedReportInterval 10s
attr unit s
par lab7.host[4].ipv4.icmp typename "\"inet.networklayer.ipv4.Icmp\""
par lab7.host[4].ipv4.icmp interfaceTableModule "\"lab7.host[4].interfaceTable\""
par lab7.host[4].ipv4.icmp routingTableModule "\"lab7.host[4].ipv4.routingTable\""
par lab7.host[4].ipv4.icmp crcMode "\"declared\""
attr enum declared,computed
attr mutable ""
par lab7.host[4].ipv4.icmp quoteLength 8B
attr mutable ""
attr unit B
par lab7.host[4].ipv4.mp typename "\"inet.common.MessageDispatcher\""
par lab7.host[4].ipv4.mp displayStringTextFormat "\"processed %p pk (%l)\""
par lab7.host[4].ipv4.mp forwardServiceRegistration true
par lab7.host[4].ipv4.mp forwardProtocolRegistration true
par lab7.host[4].ipv4.ip typename "\"inet.networklayer.ipv4.Ipv4\""
par lab7.host[4].ipv4.ip interfaceTableModule "\"lab7.host[4].interfaceTable\""
par lab7.host[4].ipv4.ip routingTableModule "\"lab7.host[4].ipv4.routingTable\""
par lab7.host[4].ipv4.ip arpModule "\"lab7.host[4].ipv4.arp\""
par lab7.host[4].ipv4.ip icmpModule "\"lab7.host[4].ipv4.icmp\""
par lab7.host[4].ipv4.ip crcMode "\"declared\""
attr enum declared,computed
par lab7.host[4].ipv4.ip timeToLive 32
par lab7.host[4].ipv4.ip multicastTimeToLive 32
par lab7.host[4].ipv4.ip fragmentTimeout 60s
attr unit s
par lab7.host[4].ipv4.ip limitedBroadcast false
par lab7.host[4].ipv4.ip directBroadcastInterfaces "\"\""
scalar lab7.host[4].ipv4.ip packetDropAddressResolutionFailed:count 0
attr interpolationmode none
attr recordingmode count
attr source packetDropReasonIsAddressResolutionFailed(packetDropped)
attr title "packet drop: address resolution failed, count"
scalar lab7.host[4].ipv4.ip packetDropAddressResolutionFailed:sum(packetBytes) 0
attr interpolationmode none
attr recordingmode sum(packetBytes)
attr source packetDropReasonIsAddressResolutionFailed(packetDropped)
attr title "packet drop: address resolution failed, sum(packetBytes)"
scalar lab7.host[4].ipv4.ip packetDropHopLimitReached:count 0
attr interpolationmode none
attr recordingmode count
attr source packetDropReasonIsHopLimitReached(packetDropped)
attr title "packet drop: hop limit reached, count"
scalar lab7.host[4].ipv4.ip packetDropHopLimitReached:sum(packetBytes) 0
attr interpolationmode none
attr recordingmode sum(packetBytes)
attr source packetDropReasonIsHopLimitReached(packetDropped)
attr title "packet drop: hop limit reached, sum(packetBytes)"
scalar lab7.host[4].ipv4.ip packetDropForwardingDisabled:count 0
attr interpolationmode none
attr recordingmode count
attr source packetDropReasonIsForwardingDisabled(packetDropped)
attr title "packet drop: forwarding disabled, count"
scalar lab7.host[4].ipv4.ip packetDropForwardingDisabled:sum(packetBytes) 0
attr interpolationmode none
attr recordingmode sum(packetBytes)
attr source packetDropReasonIsForwardingDisabled(packetDropped)
attr title "packet drop: forwarding disabled, sum(packetBytes)"
scalar lab7.host[4].ipv4.ip packetDropNoInterfaceFound:count 0
attr interpolationmode none
attr recordingmode count
attr source packetDropReasonIsNoInterfaceFound(packetDropped)
attr title "packet drop: no interface found, count"
scalar lab7.host[4].ipv4.ip packetDropNoInterfaceFound:sum(packetBytes) 0
attr interpolationmode none
attr recordingmode sum(packetBytes)
attr source packetDropReasonIsNoInterfaceFound(packetDropped)
attr title "packet drop: no interface found, sum(packetBytes)"
scalar lab7.host[4].ipv4.ip packetDropNoRouteFound:count 0
attr interpolationmode none
attr recordingmode count
attr source packetDropReasonIsNoRouteFound(packetDropped)
attr title "packet drop: no route found, count"
scalar lab7.host[4].ipv4.ip packetDropNoRouteFound:sum(packetBytes) 0
attr interpolationmode none
attr recordingmode sum(packetBytes)
attr source packetDropReasonIsNoRouteFound(packetDropped)
attr title "packet drop: no route found, sum(packetBytes)"
scalar lab7.host[4].ipv4.ip packetDropUndefined:count 0
attr interpolationmode none
attr recordingmode count
attr source packetDropReasonIsUndefined(packetDropped)
attr title "packet drop: undefined, count"
scalar lab7.host[4].ipv4.ip packetDropUndefined:sum(packetBytes) 0
attr interpolationmode none
attr recordingmode sum(packetBytes)
attr source packetDropReasonIsUndefined(packetDropped)
attr title "packet drop: undefined, sum(packetBytes)"
par lab7.host[4].ipv4.arp typename "\"inet.networklayer.arp.ipv4.Arp\""
par lab7.host[4].ipv4.arp interfaceTableModule "\"lab7.host[4].interfaceTable\""
par lab7.host[4].ipv4.arp routingTableModule "\"lab7.host[4].ipv4.routingTable\""
par lab7.host[4].ipv4.arp retryTimeout 1s
attr unit s
par lab7.host[4].ipv4.arp retryCount 3
par lab7.host[4].ipv4.arp cacheTimeout 120s
attr unit s
par lab7.host[4].ipv4.arp proxyArpInterfaces "\"\""
scalar lab7.host[4].ipv4.arp arpReplySent:count 0
attr recordingmode count
attr source arpReplySent
attr title "ARP replies sent, count"
scalar lab7.host[4].ipv4.arp arpReplySent:sum(packetBytes) 0
attr recordingmode sum(packetBytes)
attr source arpReplySent
attr title "ARP replies sent, sum(packetBytes)"
scalar lab7.host[4].ipv4.arp arpRequestSent:count 1
attr recordingmode count
attr source arpRequestSent
attr title "ARP request sent, count"
scalar lab7.host[4].ipv4.arp arpRequestSent:sum(packetBytes) 28
attr recordingmode sum(packetBytes)
attr source arpRequestSent
attr title "ARP request sent, sum(packetBytes)"
scalar lab7.host[4].ipv4.arp arpResolutionFailed:count 0
attr recordingmode count
attr title "ARP failed resolutions, count"
scalar lab7.host[4].ipv4.arp arpResolutionCompleted:count 1
attr recordingmode count
attr title "ARP completed resolutions, count"
scalar lab7.host[4].ipv4.arp arpResolutionInitiated:count 1
attr recordingmode count
attr title "ARP initiated resolutions, count"
par lab7.host[4].ipv4.lp typename "\"inet.common.MessageDispatcher\""
par lab7.host[4].ipv4.lp displayStringTextFormat "\"processed %p pk (%l)\""
par lab7.host[4].ipv4.lp forwardServiceRegistration true
par lab7.host[4].ipv4.lp forwardProtocolRegistration true
par lab7.host[4].ipv4 typename "\"inet.networklayer.ipv4.Ipv4NetworkLayer\""
par lab7.host[4].ipv4 forwarding true
par lab7.host[4].ipv4 multicastForwarding false
par lab7.host[4].ipv4 interfaceTableModule "\"lab7.host[4].interfaceTable\""
par lab7.host[4].ipv4 displayStringTextFormat "\"%i\""
par lab7.host[4].nl typename "\"inet.common.MessageDispatcher\""
par lab7.host[4].nl displayStringTextFormat "\"processed %p pk (%l)\""
par lab7.host[4].nl forwardServiceRegistration true
par lab7.host[4].nl forwardProtocolRegistration true
par lab7.host[4].udp typename "\"inet.transportlayer.udp.Udp\""
par lab7.host[4].udp interfaceTableModule "\"lab7.host[4].interfaceTable\""
par lab7.host[4].udp icmpModule "\"^.ipv4.icmp\""
par lab7.host[4].udp icmpv6Module "\"^.ipv6.icmpv6\""
par lab7.host[4].udp crcMode "\"declared\""
attr enum disabled,declared,computed
par lab7.host[4].udp defaultMulticastLoop true
scalar lab7.host[4].udp packetReceived:count 0
attr interpolationmode none
attr recordingmode count
attr source packetReceived
attr title "packets received, count"
scalar lab7.host[4].udp packetReceived:sum(packetBytes) 0
attr interpolationmode none
attr recordingmode sum(packetBytes)
attr source packetReceived
attr title "packets received, sum(packetBytes)"
scalar lab7.host[4].udp packetSent:count 0
attr interpolationmode none
attr recordingmode count
attr source packetSent
attr title "packets sent, count"
scalar lab7.host[4].udp packetSent:sum(packetBytes) 0
attr interpolationmode none
attr recordingmode sum(packetBytes)
attr source packetSent
attr title "packets sent, sum(packetBytes)"
scalar lab7.host[4].udp passedUpPk:count 0
attr interpolationmode none
attr recordingmode count
attr source packetSentToUpper
attr title "packets passed up, count"
scalar lab7.host[4].udp droppedPkWrongPort:count 0
attr interpolationmode none
attr recordingmode count
attr source packetDropReasonIsNoPortFound(packetDropped)
attr title "packets dropped (wrong port), count"
scalar lab7.host[4].udp droppedPkBadChecksum:count 0
attr interpolationmode none
attr recordingmode count
attr source packetDropReasonIsIncorrectlyReceived(packetDropped)
attr title "packets dropped (checksum error), count"
par lab7.host[4].tcp typename "\"inet.transportlayer.tcp.Tcp\""
par lab7.host[4].tcp crcMode "\"declared\""
attr enum declared,computed
par lab7.host[4].tcp advertisedWindow 7504
par lab7.host[4].tcp delayedAcksEnabled false
par lab7.host[4].tcp nagleEnabled true
par lab7.host[4].tcp limitedTransmitEnabled false
par lab7.host[4].tcp increasedIWEnabled false
par lab7.host[4].tcp sackSupport false
par lab7.host[4].tcp windowScalingSupport false
par lab7.host[4].tcp windowScalingFactor -1
par lab7.host[4].tcp timestampSupport false
par lab7.host[4].tcp mss 536
par lab7.host[4].tcp msl 120s
attr unit s
par lab7.host[4].tcp tcpAlgorithmClass "\"TcpReno\""
attr enum TcpVegas,TcpWestwood,TcpNewReno,TcpReno,TcpTahoe,TcpNoCongestionControl
par lab7.host[4].tcp useDataNotification false
par lab7.host[4].tcp dupthresh 3
par lab7.host[4].tcp initialSsthresh 4294967295
par lab7.host[4].tcp stopOperationExtraTime 0s
attr unit s
par lab7.host[4].tcp stopOperationTimeout 2s
attr unit s
par lab7.host[4].tcp ecnWillingness false
par lab7.host[4].tcp dctcpGamma 0.0625
par lab7.host[4].tn typename "\"inet.common.MessageDispatcher\""
par lab7.host[4].tn displayStringTextFormat "\"processed %p pk (%l)\""
par lab7.host[4].tn forwardServiceRegistration true
par lab7.host[4].tn forwardProtocolRegistration true
par lab7.host[4].app[0] typename "\"inet.applications.pingapp.PingApp\""
par lab7.host[4].app[0] destAddr "\"host[0]\""
par lab7.host[4].app[0] srcAddr "\"\""
par lab7.host[4].app[0] packetSize 56B
attr unit B
par lab7.host[4].app[0] sendInterval 1s
attr unit s
par lab7.host[4].app[0] hopLimit -1
par lab7.host[4].app[0] count -1
par lab7.host[4].app[0] startTime 3.17953s
attr unit s
par lab7.host[4].app[0] stopTime -1s
attr unit s
par lab7.host[4].app[0] sleepDuration 0s
attr unit s
par lab7.host[4].app[0] continuous false
par lab7.host[4].app[0] printPing true
par lab7.host[4].app[0] crcMode "\"declared\""
attr enum declared,computed
par lab7.host[4].app[0] networkProtocol "\"\""
par lab7.host[4].app[0] stopOperationExtraTime -1s
attr unit s
par lab7.host[4].app[0] stopOperationTimeout 2s
attr unit s
scalar lab7.host[4].app[0] "Pings sent" 2
scalar lab7.host[4].app[0] "ping loss rate (%)" 50
scalar lab7.host[4].app[0] "ping out-of-order rate (%)" 0
scalar lab7.host[4].app[0] pingRxSeq:count 1
attr interpolationmode none
attr recordingmode count
attr title "ping rx seq, count"
scalar lab7.host[4].app[0] pingTxSeq:count 2
attr interpolationmode none
attr recordingmode count
attr title "ping tx seq, count"
scalar lab7.host[4].app[0] numOutOfOrderArrivals:last nan
attr interpolationmode none
attr recordingmode last
attr title "ping out-of-order arrivals, last"
scalar lab7.host[4].app[0] numLost:last nan
attr interpolationmode none
attr recordingmode last
attr title "pings lost, last"
statistic lab7.host[4].app[0] rtt:histogram
field count 1
field mean 0.003106411448
field stddev nan
field min 0.003106411448
field max 0.003106411448
field sum 0.003106411448
field sqrsum 9.6497920842655e-06
attr interpolationmode none
attr recordingmode histogram
attr title "ping round-trip time"
attr unit s
bin	-inf	0
bin	0	1
bin	0.01	0
bin	0.02	0
bin	0.03	0
bin	0.04	0
bin	0.05	0
bin	0.06	0
bin	0.07	0
bin	0.08	0
bin	0.09	0
bin	0.1	0
bin	0.11	0
bin	0.12	0
bin	0.13	0
bin	0.14	0
bin	0.15	0
bin	0.16	0
bin	0.17	0
bin	0.18	0
bin	0.19	0
bin	0.2	0
bin	0.21	0
bin	0.22	0
bin	0.23	0
bin	0.24	0
bin	0.25	0
bin	0.26	0
bin	0.27	0
bin	0.28	0
bin	0.29	0
bin	0.3	0
bin	0.31	0
bin	0.32	0
bin	0.33	0
bin	0.34	0
bin	0.35	0
bin	0.36	0
bin	0.37	0
bin	0.38	0
bin	0.39	0
bin	0.4	0
bin	0.41	0
bin	0.42	0
bin	0.43	0
bin	0.44	0
bin	0.45	0
bin	0.46	0
bin	0.47	0
bin	0.48	0
bin	0.49	0
bin	0.5	0
bin	0.51	0
par lab7.host[4].app[1] typename "\"inet.applications.pingapp.PingApp\""
par lab7.host[4].app[1] destAddr "\"host[0]\""
par lab7.host[4].app[1] srcAddr "\"\""
par lab7.host[4].app[1] packetSize 56B
attr unit B
par lab7.host[4].app[1] sendInterval 1s
attr unit s
par lab7.host[4].app[1] hopLimit -1
par lab7.host[4].app[1] count -1
par lab7.host[4].app[1] startTime 9.38901s
attr unit s
par lab7.host[4].app[1] stopTime -1s
attr unit s
par lab7.host[4].app[1] sleepDuration 0s
attr unit s
par lab7.host[4].app[1] continuous false
par lab7.host[4].app[1] printPing true
par lab7.host[4].app[1] crcMode "\"declared\""
attr enum declared,computed
par lab7.host[4].app[1] networkProtocol "\"\""
par lab7.host[4].app[1] stopOperationExtraTime -1s
attr unit s
par lab7.host[4].app[1] stopOperationTimeout 2s
attr unit s
scalar lab7.host[4].app[1] pingRxSeq:count 0
attr interpolationmode none
attr recordingmode count
attr title "ping rx seq, count"
scalar lab7.host[4].app[1] pingTxSeq:count 0
attr interpolationmode none
attr recordingmode count
attr title "ping tx seq, count"
scalar lab7.host[4].app[1] numOutOfOrderArrivals:last nan
attr interpolationmode none
attr recordingmode last
attr title "ping out-of-order arrivals, last"
scalar lab7.host[4].app[1] numLost:last nan
attr interpolationmode none
attr recordingmode last
attr title "pings lost, last"
statistic lab7.host[4].app[1] rtt:histogram
field count 0
field mean nan
field stddev nan
field min nan
field max nan
field sum 0
field sqrsum 0
attr interpolationmode none
attr recordingmode histogram
attr title "ping round-trip time"
attr unit s
bin	-inf	0
bin	0	0
bin	1	0
par lab7.host[4].at typename "\"inet.common.MessageDispatcher\""
par lab7.host[4].at displayStringTextFormat "\"processed %p pk (%l)\""
par lab7.host[4].at forwardServiceRegistration true
par lab7.host[4].at forwardProtocolRegistration true
par lab7.host[4] typename "\"inet.node.inet.AdhocHost\""
par lab7.host[4] hasStatus false
par lab7.host[4] osgModel "\"\""
par lab7.host[4] osgModelColor "\"\""
par lab7.host[4] canvasImage "\"\""
par lab7.host[4] canvasImageColor "\"\""
par lab7.host[4] recordPcap false
par lab7.host[4] numPcapRecorders 0
par lab7.host[4] numLoInterfaces 1
par lab7.host[4] numWlanInterfaces 1
par lab7.host[4] numEthInterfaces 0
par lab7.host[4] numPppInterfaces 0
par lab7.host[4] numTunInterfaces 0
par lab7.host[4] numVirtInterfaces 0
par lab7.host[4] fcsMode "\"declared\""
attr enum declared,computed
par lab7.host[4] hasIpv4 true
par lab7.host[4] hasIpv6 false
par lab7.host[4] hasGn false
par lab7.host[4] forwarding true
par lab7.host[4] multicastForwarding false
par lab7.host[4] hasUdp true
par lab7.host[4] hasTcp true
par lab7.host[4] hasSctp false
par lab7.host[4] numApps 2
par lab7 typename "\"lab7\""
par lab7 numHosts 5

