version 3
run Wireless11-0-20241218-08:41:35-15352
attr configname Wireless11
attr datetime 20241218-08:41:35
attr datetimef 20241218-084135
attr experiment Wireless11
attr inifile omnetpp.ini
attr iterationvars ""
attr iterationvarsd ""
attr iterationvarsf ""
attr measurement ""
attr network WirelessB
attr processid 15352
attr repetition 0
attr replication #0
attr resultdir results
attr runnumber 0
attr seedset 0
config image-path ../inet4.5/images
config description "Adding obstacles to the environment"
config extends Wireless10
config *.host*.mobility.initialZ 1.7m
config *.physicalEnvironment.config "xmldoc(\"walls.xml\")"
config *.radioMedium.obstacleLoss.typename IdealObstacleLoss
config description "Configuring ad-hoc routing (AODV)"
config extends Wireless09
config *.configurator.addStaticRoutes false
config *.host*.typename AodvRouter
config *.hostB.wlan[0].radio.displayCommunicationRange true
config *.visualizer.dataLinkVisualizer.packetFilter "\"AODV*\""
config description "Configuring node movements"
config extends Wireless08
config *.hostR1.mobility.typename LinearMobility
config *.hostR1.mobility.speed 12mps
config *.hostR1.mobility.initialMovementHeading 270deg
config *.hostR2.mobility.typename LinearMobility
config *.hostR2.mobility.speed 10mps
config *.hostR2.mobility.initialMovementHeading 180deg
config *.hostR3.mobility.typename LinearMobility
config *.hostR3.mobility.speed 8mps
config *.hostR3.mobility.initialMovementHeading 90deg
config *.host*.wlan[0].queue.packetCapacity 50
config *.host*.wlan[0].radio.transmitter.communicationRange 300m
config *.host*.**.bitrate 15Mbps
config *.host*.wlan[0].radio.receiver.ignoreInterference false
config *.visualizer.mobilityVisualizer.displayVelocities true
config *.visualizer.mobilityVisualizer.displayMovementTrails true
config *.*.radioMedium.maxTransmissionDuration 10s
config description "Modeling energy consumption"
config extends Wireless07
config *.host*.wlan[0].radio.energyConsumer.typename StateBasedEpEnergyConsumer
config *.host*.wlan[0].radio.energyConsumer.offPowerConsumption 0mW
config *.host*.wlan[0].radio.energyConsumer.sleepPowerConsumption 1mW
config *.host*.wlan[0].radio.energyConsumer.switchingPowerConsumption 1mW
config *.host*.wlan[0].radio.energyConsumer.receiverIdlePowerConsumption 2mW
config *.host*.wlan[0].radio.energyConsumer.receiverBusyPowerConsumption 5mW
config *.host*.wlan[0].radio.energyConsumer.receiverReceivingPowerConsumption 10mW
config *.host*.wlan[0].radio.energyConsumer.transmitterIdlePowerConsumption 2mW
config *.host*.wlan[0].radio.energyConsumer.transmitterTransmittingPowerConsumption 100mW
config *.host*.energyStorage.typename IdealEpEnergyStorage
config *.host*.wlan[0].radio.displayInterferenceRange false
config *.hostR1.wlan[0].radio.displayCommunicationRange false
config *.visualizer.mediumVisualizer.displaySignals false
config description "Turning on ACKs in CSMA"
config extends Wireless06
config *.host*.wlan[0].mac.useAck true
config description "Using CSMA to better utilize the medium"
config extends Wireless05
config *.host*.wlan[0].typename WirelessInterface
config *.host*.wlan[0].radio.typename UnitDiskRadio
config *.host*.wlan[0].mac.typename CsmaCaMac
config *.host*.wlan[0].mac.ackTimeout 300us
config *.host*.wlan[0].queue.typename DropTailQueue
config *.host*.wlan[0].queue.packetCapacity -1
config description "Taking interference into account"
config extends Wireless04
config *.host*.wlan[0].radio.receiver.ignoreInterference false
config *.host*.wlan[0].radio.transmitter.interferenceRange 500m
config *.hostA.wlan[0].radio.displayInterferenceRange true
config *.visualizer.dataLinkVisualizer.packetFilter "\"\""
config description "Setting up static routing"
config extends Wireless03
config *.host*.ipv4.routingTable.typename AodvRouting
config *.host*.forwarding true
config *.configurator.config "xml(\"<config><interface hosts='**' address='10.0.0.x' netmask='255.255.255.0'/><autoroute metric='errorRate'/></config>\")"
config *.configurator.optimizeRoutes false
config *.host*.ipv4.routingTable.netmaskRoutes "\"\""
config *.visualizer.physicalLinkVisualizer.displayLinks true
config *.visualizer.dataLinkVisualizer.displayLinks true
config *.visualizer.networkRouteVisualizer.displayRoutes true
config *.visualizer.networkRouteVisualizer.lineShift 0
config *.visualizer.networkRouteVisualizer.packetFilter "\"UDPData*\""
config *.visualizer.routingTableVisualizer.displayRoutingTables true
config *.visualizer.routingTableVisualizer.labelFormat "\"\""
config *.visualizer.routingTableVisualizer.lineShiftMode "\"none\""
config *.visualizer.routingTableVisualizer.destinationFilter "\"*\""
config *.visualizer.mediumVisualizer.displayCommunicationRanges true
config description "WirelessB as standalone network"
config network WirelessB
config *.hostA.numApps 1
config *.hostA.app[0].typename UdpBasicApp
config *.hostA.app[0].destAddresses "\"hostB\""
config *.hostA.app[0].destPort 5000
config *.hostA.app[0].messageLength 500B
config *.hostA.app[0].sendInterval exponential(12ms)
config *.hostA.app[0].packetName "\"UDPData\""
config *.hostB.numApps 1
config *.hostB.app[0].typename UdpSink
config *.hostB.app[0].localPort 5000
config *.hostR1.numApps 0
config *.host*.wlan[0].radio.transmitter.communicationRange 250m
config *.hostR1.wlan[0].radio.displayCommunicationRange true
config sim-time-limit 10s

vector 0 WirelessB.hostA.wlan[0].queue queueLength:vector ETV
attr autoWarmupFilter false
attr interpolationmode sample-hold
attr recordingmode vector
attr source "warmup(atomic(constant0(packetPushEnded) + count(packetPushStarted) - count(packetPulled) - count(packetRemoved) - count(packetDropped)))"
attr title "queue length"
attr unit pk
vector 1 WirelessB.hostA.wlan[0].queue queueBitLength:vector ETV
attr autoWarmupFilter false
attr interpolationmode sample-hold
attr recordingmode vector
attr source "warmup(atomic(constant0(packetPushEnded) + sum(packetLength(packetPushStarted)) - sum(packetLength(packetPulled)) - sum(packetLength(packetRemoved)) - sum(packetLength(packetDropped))))"
attr title "queue bit length"
attr unit b
vector 2 WirelessB.hostA.udp passedUpPk:vector(count) ETV
attr interpolationmode none
attr recordingmode vector(count)
attr source packetSentToUpper
attr title "packets passed up, count"
vector 3 WirelessB.hostA.udp droppedPkWrongPort:vector(count) ETV
attr interpolationmode none
attr recordingmode vector(count)
attr source packetDropReasonIsNoPortFound(packetDropped)
attr title "packets dropped (wrong port), count"
vector 4 WirelessB.hostA.udp droppedPkBadChecksum:vector(count) ETV
attr interpolationmode none
attr recordingmode vector(count)
attr source packetDropReasonIsIncorrectlyReceived(packetDropped)
attr title "packets dropped (checksum error), count"
vector 5 WirelessB.hostB.wlan[0].queue queueLength:vector ETV
attr autoWarmupFilter false
attr interpolationmode sample-hold
attr recordingmode vector
attr source "warmup(atomic(constant0(packetPushEnded) + count(packetPushStarted) - count(packetPulled) - count(packetRemoved) - count(packetDropped)))"
attr title "queue length"
attr unit pk
vector 6 WirelessB.hostB.wlan[0].queue queueBitLength:vector ETV
attr autoWarmupFilter false
attr interpolationmode sample-hold
attr recordingmode vector
attr source "warmup(atomic(constant0(packetPushEnded) + sum(packetLength(packetPushStarted)) - sum(packetLength(packetPulled)) - sum(packetLength(packetRemoved)) - sum(packetLength(packetDropped))))"
attr title "queue bit length"
attr unit b
vector 7 WirelessB.hostB.udp passedUpPk:vector(count) ETV
attr interpolationmode none
attr recordingmode vector(count)
attr source packetSentToUpper
attr title "packets passed up, count"
vector 8 WirelessB.hostB.udp droppedPkWrongPort:vector(count) ETV
attr interpolationmode none
attr recordingmode vector(count)
attr source packetDropReasonIsNoPortFound(packetDropped)
attr title "packets dropped (wrong port), count"
vector 9 WirelessB.hostB.udp droppedPkBadChecksum:vector(count) ETV
attr interpolationmode none
attr recordingmode vector(count)
attr source packetDropReasonIsIncorrectlyReceived(packetDropped)
attr title "packets dropped (checksum error), count"
vector 10 WirelessB.hostR1.wlan[0].queue queueLength:vector ETV
attr autoWarmupFilter false
attr interpolationmode sample-hold
attr recordingmode vector
attr source "warmup(atomic(constant0(packetPushEnded) + count(packetPushStarted) - count(packetPulled) - count(packetRemoved) - count(packetDropped)))"
attr title "queue length"
attr unit pk
vector 11 WirelessB.hostR1.wlan[0].queue queueBitLength:vector ETV
attr autoWarmupFilter false
attr interpolationmode sample-hold
attr recordingmode vector
attr source "warmup(atomic(constant0(packetPushEnded) + sum(packetLength(packetPushStarted)) - sum(packetLength(packetPulled)) - sum(packetLength(packetRemoved)) - sum(packetLength(packetDropped))))"
attr title "queue bit length"
attr unit b
vector 12 WirelessB.hostR1.udp passedUpPk:vector(count) ETV
attr interpolationmode none
attr recordingmode vector(count)
attr source packetSentToUpper
attr title "packets passed up, count"
vector 13 WirelessB.hostR1.udp droppedPkWrongPort:vector(count) ETV
attr interpolationmode none
attr recordingmode vector(count)
attr source packetDropReasonIsNoPortFound(packetDropped)
attr title "packets dropped (wrong port), count"
vector 14 WirelessB.hostR1.udp droppedPkBadChecksum:vector(count) ETV
attr interpolationmode none
attr recordingmode vector(count)
attr source packetDropReasonIsIncorrectlyReceived(packetDropped)
attr title "packets dropped (checksum error), count"
vector 15 WirelessB.hostR2.wlan[0].queue queueLength:vector ETV
attr autoWarmupFilter false
attr interpolationmode sample-hold
attr recordingmode vector
attr source "warmup(atomic(constant0(packetPushEnded) + count(packetPushStarted) - count(packetPulled) - count(packetRemoved) - count(packetDropped)))"
attr title "queue length"
attr unit pk
vector 16 WirelessB.hostR2.wlan[0].queue queueBitLength:vector ETV
attr autoWarmupFilter false
attr interpolationmode sample-hold
attr recordingmode vector
attr source "warmup(atomic(constant0(packetPushEnded) + sum(packetLength(packetPushStarted)) - sum(packetLength(packetPulled)) - sum(packetLength(packetRemoved)) - sum(packetLength(packetDropped))))"
attr title "queue bit length"
attr unit b
vector 17 WirelessB.hostR2.udp passedUpPk:vector(count) ETV
attr interpolationmode none
attr recordingmode vector(count)
attr source packetSentToUpper
attr title "packets passed up, count"
vector 18 WirelessB.hostR2.udp droppedPkWrongPort:vector(count) ETV
attr interpolationmode none
attr recordingmode vector(count)
attr source packetDropReasonIsNoPortFound(packetDropped)
attr title "packets dropped (wrong port), count"
vector 19 WirelessB.hostR2.udp droppedPkBadChecksum:vector(count) ETV
attr interpolationmode none
attr recordingmode vector(count)
attr source packetDropReasonIsIncorrectlyReceived(packetDropped)
attr title "packets dropped (checksum error), count"
vector 20 WirelessB.hostR3.wlan[0].queue queueLength:vector ETV
attr autoWarmupFilter false
attr interpolationmode sample-hold
attr recordingmode vector
attr source "warmup(atomic(constant0(packetPushEnded) + count(packetPushStarted) - count(packetPulled) - count(packetRemoved) - count(packetDropped)))"
attr title "queue length"
attr unit pk
vector 21 WirelessB.hostR3.wlan[0].queue queueBitLength:vector ETV
attr autoWarmupFilter false
attr interpolationmode sample-hold
attr recordingmode vector
attr source "warmup(atomic(constant0(packetPushEnded) + sum(packetLength(packetPushStarted)) - sum(packetLength(packetPulled)) - sum(packetLength(packetRemoved)) - sum(packetLength(packetDropped))))"
attr title "queue bit length"
attr unit b
vector 22 WirelessB.hostR3.udp passedUpPk:vector(count) ETV
attr interpolationmode none
attr recordingmode vector(count)
attr source packetSentToUpper
attr title "packets passed up, count"
vector 23 WirelessB.hostR3.udp droppedPkWrongPort:vector(count) ETV
attr interpolationmode none
attr recordingmode vector(count)
attr source packetDropReasonIsNoPortFound(packetDropped)
attr title "packets dropped (wrong port), count"
vector 24 WirelessB.hostR3.udp droppedPkBadChecksum:vector(count) ETV
attr interpolationmode none
attr recordingmode vector(count)
attr source packetDropReasonIsIncorrectlyReceived(packetDropped)
attr title "packets dropped (checksum error), count"
vector 25 WirelessB.hostA.energyStorage powerConsumption:vector ETV
attr interpolationmode sample-hold
attr recordingmode vector
attr source powerConsumptionChanged
attr title "Power consumption"
attr unit W
vector 26 WirelessB.hostB.energyStorage powerConsumption:vector ETV
attr interpolationmode sample-hold
attr recordingmode vector
attr source powerConsumptionChanged
attr title "Power consumption"
attr unit W
vector 27 WirelessB.hostR1.energyStorage powerConsumption:vector ETV
attr interpolationmode sample-hold
attr recordingmode vector
attr source powerConsumptionChanged
attr title "Power consumption"
attr unit W
vector 28 WirelessB.hostR2.energyStorage powerConsumption:vector ETV
attr interpolationmode sample-hold
attr recordingmode vector
attr source powerConsumptionChanged
attr title "Power consumption"
attr unit W
vector 29 WirelessB.hostR3.energyStorage powerConsumption:vector ETV
attr interpolationmode sample-hold
attr recordingmode vector
attr source powerConsumptionChanged
attr title "Power consumption"
attr unit W
vector 30 WirelessB.hostA.wlan[0].radio radioMode:vector ETV
attr interpolationmode sample-hold
attr recordingmode vector
attr source radioModeChanged
attr title "Radio mode"
vector 31 WirelessB.hostA.wlan[0].radio.energyConsumer powerConsumption:vector ETV
attr interpolationmode sample-hold
attr recordingmode vector
attr source powerConsumptionChanged
attr title "Power consumption"
attr unit W
vector 32 WirelessB.hostB.wlan[0].radio radioMode:vector ETV
attr interpolationmode sample-hold
attr recordingmode vector
attr source radioModeChanged
attr title "Radio mode"
vector 33 WirelessB.hostB.wlan[0].radio.energyConsumer powerConsumption:vector ETV
attr interpolationmode sample-hold
attr recordingmode vector
attr source powerConsumptionChanged
attr title "Power consumption"
attr unit W
vector 34 WirelessB.hostR1.wlan[0].radio radioMode:vector ETV
attr interpolationmode sample-hold
attr recordingmode vector
attr source radioModeChanged
attr title "Radio mode"
vector 35 WirelessB.hostR1.wlan[0].radio.energyConsumer powerConsumption:vector ETV
attr interpolationmode sample-hold
attr recordingmode vector
attr source powerConsumptionChanged
attr title "Power consumption"
attr unit W
vector 36 WirelessB.hostR2.wlan[0].radio radioMode:vector ETV
attr interpolationmode sample-hold
attr recordingmode vector
attr source radioModeChanged
attr title "Radio mode"
vector 37 WirelessB.hostR2.wlan[0].radio.energyConsumer powerConsumption:vector ETV
attr interpolationmode sample-hold
attr recordingmode vector
attr source powerConsumptionChanged
attr title "Power consumption"
attr unit W
vector 38 WirelessB.hostR3.wlan[0].radio radioMode:vector ETV
attr interpolationmode sample-hold
attr recordingmode vector
attr source radioModeChanged
attr title "Radio mode"
vector 39 WirelessB.hostR3.wlan[0].radio.energyConsumer powerConsumption:vector ETV
attr interpolationmode sample-hold
attr recordingmode vector
attr source powerConsumptionChanged
attr title "Power consumption"
attr unit W
vector 40 WirelessB.hostA.wlan[0].radio receptionState:vector ETV
attr interpolationmode sample-hold
attr recordingmode vector
attr source receptionStateChanged
attr title "Radio reception state"
vector 41 WirelessB.hostB.wlan[0].radio receptionState:vector ETV
attr interpolationmode sample-hold
attr recordingmode vector
attr source receptionStateChanged
attr title "Radio reception state"
vector 42 WirelessB.hostR1.wlan[0].radio receptionState:vector ETV
attr interpolationmode sample-hold
attr recordingmode vector
attr source receptionStateChanged
attr title "Radio reception state"
vector 43 WirelessB.hostR2.wlan[0].radio receptionState:vector ETV
attr interpolationmode sample-hold
attr recordingmode vector
attr source receptionStateChanged
attr title "Radio reception state"
vector 44 WirelessB.hostR3.wlan[0].radio receptionState:vector ETV
attr interpolationmode sample-hold
attr recordingmode vector
attr source receptionStateChanged
attr title "Radio reception state"
vector 45 WirelessB.hostA.app[0] packetSent:vector(packetBytes) ETV
attr interpolationmode none
attr recordingmode vector(packetBytes)
attr source packetSent
attr title "packets sent, packetBytes"
vector 46 WirelessB.hostA.udp packetSent:vector(packetBytes) ETV
attr interpolationmode none
attr recordingmode vector(packetBytes)
attr source packetSent
attr title "packets sent, packetBytes"
vector 47 WirelessB.hostA.wlan[0].queue incomingPacketLengths:vector ETV
attr interpolationmode none
attr recordingmode vector
attr source packetLength(packetPushStarted)
attr title "incoming packet lengths"
attr unit b
vector 48 WirelessB.hostA.wlan[0].queue queueingTime:vector ETV
attr interpolationmode none
attr recordingmode vector
attr source queueingTime(packetPulled)
attr title "queueing times"
attr unit s
vector 49 WirelessB.hostA.wlan[0].queue outgoingPacketLengths:vector ETV
attr interpolationmode none
attr recordingmode vector
attr source packetLength(packetPulled)
attr title "outgoing packet lengths"
attr unit b
vector 50 WirelessB.hostA.energyStorage residualEnergyCapacity:vector ETV
attr interpolationmode linear
attr recordingmode vector
attr source residualEnergyCapacityChanged
attr title "Residual energy capacity"
attr unit J
vector 51 WirelessB.hostA.wlan[0].radio transmissionState:vector ETV
attr interpolationmode sample-hold
attr recordingmode vector
attr source transmissionStateChanged
attr title "Radio transmission state"
vector 52 WirelessB.hostR2.energyStorage residualEnergyCapacity:vector ETV
attr interpolationmode linear
attr recordingmode vector
attr source residualEnergyCapacityChanged
attr title "Residual energy capacity"
attr unit J
vector 53 WirelessB.hostR2.udp packetReceived:vector(packetBytes) ETV
attr interpolationmode none
attr recordingmode vector(packetBytes)
attr source packetReceived
attr title "packets received, packetBytes"
vector 54 WirelessB.hostR2.udp packetSent:vector(packetBytes) ETV
attr interpolationmode none
attr recordingmode vector(packetBytes)
attr source packetSent
attr title "packets sent, packetBytes"
vector 55 WirelessB.hostR2.wlan[0].queue incomingPacketLengths:vector ETV
attr interpolationmode none
attr recordingmode vector
attr source packetLength(packetPushStarted)
attr title "incoming packet lengths"
attr unit b
vector 56 WirelessB.hostR2.wlan[0].queue queueingTime:vector ETV
attr interpolationmode none
attr recordingmode vector
attr source queueingTime(packetPulled)
attr title "queueing times"
attr unit s
vector 57 WirelessB.hostR2.wlan[0].queue outgoingPacketLengths:vector ETV
attr interpolationmode none
attr recordingmode vector
attr source packetLength(packetPulled)
attr title "outgoing packet lengths"
attr unit b
vector 58 WirelessB.hostR2.wlan[0].radio transmissionState:vector ETV
attr interpolationmode sample-hold
attr recordingmode vector
attr source transmissionStateChanged
attr title "Radio transmission state"
vector 59 WirelessB.hostR1.energyStorage residualEnergyCapacity:vector ETV
attr interpolationmode linear
attr recordingmode vector
attr source residualEnergyCapacityChanged
attr title "Residual energy capacity"
attr unit J
vector 60 WirelessB.hostR3.energyStorage residualEnergyCapacity:vector ETV
attr interpolationmode linear
attr recordingmode vector
attr source residualEnergyCapacityChanged
attr title "Residual energy capacity"
attr unit J
vector 61 WirelessB.hostB.energyStorage residualEnergyCapacity:vector ETV
attr interpolationmode linear
attr recordingmode vector
attr source residualEnergyCapacityChanged
attr title "Residual energy capacity"
attr unit J
vector 62 WirelessB.hostA.udp packetReceived:vector(packetBytes) ETV
attr interpolationmode none
attr recordingmode vector(packetBytes)
attr source packetReceived
attr title "packets received, packetBytes"
vector 63 WirelessB.hostR1.udp packetReceived:vector(packetBytes) ETV
attr interpolationmode none
attr recordingmode vector(packetBytes)
attr source packetReceived
attr title "packets received, packetBytes"
vector 64 WirelessB.hostR3.udp packetReceived:vector(packetBytes) ETV
attr interpolationmode none
attr recordingmode vector(packetBytes)
attr source packetReceived
attr title "packets received, packetBytes"
vector 65 WirelessB.hostA.wlan[0].queue incomingDataRate:vector ETV
attr interpolationmode linear
attr recordingmode vector
attr source throughput(packetPushStarted)
attr title "incoming datarate"
attr unit bps
vector 66 WirelessB.hostA.wlan[0].queue outgoingDataRate:vector ETV
attr interpolationmode linear
attr recordingmode vector
attr source throughput(packetPulled)
attr title "outgoing datarate"
attr unit bps
vector 67 WirelessB.hostR2.wlan[0].queue incomingDataRate:vector ETV
attr interpolationmode linear
attr recordingmode vector
attr source throughput(packetPushStarted)
attr title "incoming datarate"
attr unit bps
vector 68 WirelessB.hostR2.wlan[0].queue outgoingDataRate:vector ETV
attr interpolationmode linear
attr recordingmode vector
attr source throughput(packetPulled)
attr title "outgoing datarate"
attr unit bps
vector 69 WirelessB.hostR3.udp packetSent:vector(packetBytes) ETV
attr interpolationmode none
attr recordingmode vector(packetBytes)
attr source packetSent
attr title "packets sent, packetBytes"
vector 70 WirelessB.hostR3.wlan[0].queue incomingPacketLengths:vector ETV
attr interpolationmode none
attr recordingmode vector
attr source packetLength(packetPushStarted)
attr title "incoming packet lengths"
attr unit b
vector 71 WirelessB.hostR3.wlan[0].queue incomingDataRate:vector ETV
attr interpolationmode linear
attr recordingmode vector
attr source throughput(packetPushStarted)
attr title "incoming datarate"
attr unit bps
vector 72 WirelessB.hostR3.wlan[0].queue queueingTime:vector ETV
attr interpolationmode none
attr recordingmode vector
attr source queueingTime(packetPulled)
attr title "queueing times"
attr unit s
vector 73 WirelessB.hostR3.wlan[0].queue outgoingPacketLengths:vector ETV
attr interpolationmode none
attr recordingmode vector
attr source packetLength(packetPulled)
attr title "outgoing packet lengths"
attr unit b
vector 74 WirelessB.hostR3.wlan[0].queue outgoingDataRate:vector ETV
attr interpolationmode linear
attr recordingmode vector
attr source throughput(packetPulled)
attr title "outgoing datarate"
attr unit bps
vector 75 WirelessB.hostR3.wlan[0].radio transmissionState:vector ETV
attr interpolationmode sample-hold
attr recordingmode vector
attr source transmissionStateChanged
attr title "Radio transmission state"
vector 76 WirelessB.hostB.udp packetReceived:vector(packetBytes) ETV
attr interpolationmode none
attr recordingmode vector(packetBytes)
attr source packetReceived
attr title "packets received, packetBytes"
vector 77 WirelessB.hostB.udp packetSent:vector(packetBytes) ETV
attr interpolationmode none
attr recordingmode vector(packetBytes)
attr source packetSent
attr title "packets sent, packetBytes"
vector 78 WirelessB.hostB.ipv4.arp arpRequestSent:vector(packetBytes) ETV
attr recordingmode vector(packetBytes)
attr source arpRequestSent
attr title "ARP request sent, packetBytes"
vector 79 WirelessB.hostB.wlan[0].queue incomingPacketLengths:vector ETV
attr interpolationmode none
attr recordingmode vector
attr source packetLength(packetPushStarted)
attr title "incoming packet lengths"
attr unit b
vector 80 WirelessB.hostB.wlan[0].queue incomingDataRate:vector ETV
attr interpolationmode linear
attr recordingmode vector
attr source throughput(packetPushStarted)
attr title "incoming datarate"
attr unit bps
vector 81 WirelessB.hostB.wlan[0].queue queueingTime:vector ETV
attr interpolationmode none
attr recordingmode vector
attr source queueingTime(packetPulled)
attr title "queueing times"
attr unit s
vector 82 WirelessB.hostB.wlan[0].queue outgoingPacketLengths:vector ETV
attr interpolationmode none
attr recordingmode vector
attr source packetLength(packetPulled)
attr title "outgoing packet lengths"
attr unit b
vector 83 WirelessB.hostB.wlan[0].queue outgoingDataRate:vector ETV
attr interpolationmode linear
attr recordingmode vector
attr source throughput(packetPulled)
attr title "outgoing datarate"
attr unit bps
vector 84 WirelessB.hostR1.udp packetSent:vector(packetBytes) ETV
attr interpolationmode none
attr recordingmode vector(packetBytes)
attr source packetSent
attr title "packets sent, packetBytes"
vector 85 WirelessB.hostR1.wlan[0].queue incomingPacketLengths:vector ETV
attr interpolationmode none
attr recordingmode vector
attr source packetLength(packetPushStarted)
attr title "incoming packet lengths"
attr unit b
vector 86 WirelessB.hostR1.wlan[0].queue incomingDataRate:vector ETV
attr interpolationmode linear
attr recordingmode vector
attr source throughput(packetPushStarted)
attr title "incoming datarate"
attr unit bps
vector 87 WirelessB.hostR1.wlan[0].queue queueingTime:vector ETV
attr interpolationmode none
attr recordingmode vector
attr source queueingTime(packetPulled)
attr title "queueing times"
attr unit s
vector 88 WirelessB.hostR1.wlan[0].queue outgoingPacketLengths:vector ETV
attr interpolationmode none
attr recordingmode vector
attr source packetLength(packetPulled)
attr title "outgoing packet lengths"
attr unit b
vector 89 WirelessB.hostR1.wlan[0].queue outgoingDataRate:vector ETV
attr interpolationmode linear
attr recordingmode vector
attr source throughput(packetPulled)
attr title "outgoing datarate"
attr unit bps
vector 90 WirelessB.hostB.wlan[0].radio transmissionState:vector ETV
attr interpolationmode sample-hold
attr recordingmode vector
attr source transmissionStateChanged
attr title "Radio transmission state"
vector 91 WirelessB.hostR3.ipv4.arp arpReplySent:vector(packetBytes) ETV
attr recordingmode vector(packetBytes)
attr source arpReplySent
attr title "ARP replies sent, packetBytes"
vector 92 WirelessB.hostR1.wlan[0].radio transmissionState:vector ETV
attr interpolationmode sample-hold
attr recordingmode vector
attr source transmissionStateChanged
attr title "Radio transmission state"
vector 93 WirelessB.hostR1.wlan[0].mac packetDropNotAddressedToUs:vector(packetBytes) ETV
attr interpolationmode none
attr recordingmode vector(packetBytes)
attr source packetDropReasonIsNotAddressedToUs(packetDropped)
attr title "packet drop: not addressed to us, packetBytes"
vector 94 WirelessB.hostR2.wlan[0].mac packetDropNotAddressedToUs:vector(packetBytes) ETV
attr interpolationmode none
attr recordingmode vector(packetBytes)
attr source packetDropReasonIsNotAddressedToUs(packetDropped)
attr title "packet drop: not addressed to us, packetBytes"
vector 95 WirelessB.hostR3.ipv4.arp arpRequestSent:vector(packetBytes) ETV
attr recordingmode vector(packetBytes)
attr source arpRequestSent
attr title "ARP request sent, packetBytes"
vector 96 WirelessB.hostR2.ipv4.arp arpReplySent:vector(packetBytes) ETV
attr recordingmode vector(packetBytes)
attr source arpReplySent
attr title "ARP replies sent, packetBytes"
vector 97 WirelessB.hostA.wlan[0].mac packetDropNotAddressedToUs:vector(packetBytes) ETV
attr interpolationmode none
attr recordingmode vector(packetBytes)
attr source packetDropReasonIsNotAddressedToUs(packetDropped)
attr title "packet drop: not addressed to us, packetBytes"
vector 98 WirelessB.hostB.wlan[0].mac packetDropNotAddressedToUs:vector(packetBytes) ETV
attr interpolationmode none
attr recordingmode vector(packetBytes)
attr source packetDropReasonIsNotAddressedToUs(packetDropped)
attr title "packet drop: not addressed to us, packetBytes"
vector 99 WirelessB.hostR2.ipv4.arp arpRequestSent:vector(packetBytes) ETV
attr recordingmode vector(packetBytes)
attr source arpRequestSent
attr title "ARP request sent, packetBytes"
vector 100 WirelessB.hostA.ipv4.arp arpReplySent:vector(packetBytes) ETV
attr recordingmode vector(packetBytes)
attr source arpReplySent
attr title "ARP replies sent, packetBytes"
vector 101 WirelessB.hostR3.wlan[0].mac packetDropNotAddressedToUs:vector(packetBytes) ETV
attr interpolationmode none
attr recordingmode vector(packetBytes)
attr source packetDropReasonIsNotAddressedToUs(packetDropped)
attr title "packet drop: not addressed to us, packetBytes"
vector 102 WirelessB.hostR2.wlan[0].mac packetDropIncorrectlyReceived:vector(packetBytes) ETV
attr interpolationmode none
attr recordingmode vector(packetBytes)
attr source packetDropReasonIsIncorrectlyReceived(packetDropped)
attr title "packet drop: incorrectly received, packetBytes"
vector 103 WirelessB.hostB.app[0] packetReceived:vector(packetBytes) ETV
attr interpolationmode none
attr recordingmode vector(packetBytes)
attr source packetReceived
attr title "packets received, packetBytes"
vector 104 WirelessB.hostB.app[0] throughput:vector ETV
attr recordingmode vector
attr source throughput(packetReceived)
attr title throughput
attr unit bps
vector 105 WirelessB.hostB.app[0] endToEndDelay:vector ETV
attr interpolationmode none
attr recordingmode vector
attr source dataAge(packetReceived)
attr title "end-to-end delay"
attr unit s
vector 106 WirelessB.hostB.app[0] rcvdPkSeqNo:vector ETV
attr interpolationmode none
attr recordingmode vector
attr source appPkSeqNo(packetReceived)
attr title "received packet sequence number"
vector 107 WirelessB.hostB.wlan[0].mac packetDropIncorrectlyReceived:vector(packetBytes) ETV
attr interpolationmode none
attr recordingmode vector(packetBytes)
attr source packetDropReasonIsIncorrectlyReceived(packetDropped)
attr title "packet drop: incorrectly received, packetBytes"
vector 108 WirelessB.hostR1.wlan[0].mac packetDropIncorrectlyReceived:vector(packetBytes) ETV
attr interpolationmode none
attr recordingmode vector(packetBytes)
attr source packetDropReasonIsIncorrectlyReceived(packetDropped)
attr title "packet drop: incorrectly received, packetBytes"
0	0	0	0
0	0	0	0
0	0	0	0
0	0	0	0
0	0	0	0
0	21	0.016558842123	0
0	150	0.338755759987	0
0	444	0.350975447445	0
0	495	0.351338234228	1
0	496	0.351338234228	2
0	497	0.351338234228	3
0	498	0.351338234228	4
0	499	0.351338234228	5
0	500	0.351338234228	6
0	501	0.351338234228	7
0	502	0.351338234228	8
0	503	0.351338234228	9
0	504	0.351338234228	10
0	505	0.351338234228	11
0	506	0.351338234228	12
0	507	0.351338234228	13
0	508	0.351338234228	14
0	509	0.351338234228	15
0	510	0.351338234228	16
0	511	0.351338234228	17
0	512	0.351338234228	18
0	513	0.351338234228	19
0	514	0.351338234228	20
0	515	0.351338234228	21
0	516	0.351338234228	22
0	517	0.351338234228	23
0	518	0.351338234228	24
0	519	0.351338234228	25
0	520	0.351338234228	26
0	526	0.351348234228	25
0	564	0.351920487654	24
0	595	0.352356741062	23
0	626	0.35285299445	22
0	874	0.358092717101	23
0	891	0.358386120954	22
0	998	0.360260774035	21
0	1028	0.360717027103	20
0	1096	0.361762480126	19
0	1327	0.366344901954	18
0	1415	0.368225850623	19
0	1442	0.369299554665	18
0	1558	0.372074207264	17
0	1590	0.37255045985	16
0	1623	0.373106712414	15
0	1634	0.373175865382	16
0	1736	0.374561364915	15
0	1768	0.37527761739	14
0	2088	0.380211798879	13
0	2202	0.383286451024	12
0	2315	0.385721103073	11
0	2330	0.386211097953	12
0	2438	0.388875754983	11
0	2535	0.390221206848	10
0	2567	0.391137458678	9
0	2631	0.391942910472	8
0	2782	0.394078853365	9
0	2847	0.395262657066	10
0	2881	0.399494532301	9
0	2916	0.400090783767	8
0	2948	0.400627035211	7
0	3142	0.403561137931	6
0	3174	0.404057389236	5
0	3413	0.407738853014	4
0	3524	0.410953504032	3
0	3590	0.411758955022	2
0	3735	0.414333605908	1
0	3801	0.415239056753	0
0	4060	0.42705372821	0
0	4169	0.440729023772	0
0	4270	0.455155886579	0
0	4365	0.461524556538	0
0	4466	0.471970986454	0
0	4567	0.482625323379	0
0	4677	0.520130943671	0
0	4774	0.531704386457	0
0	4873	0.536011513047	0
0	4968	0.541815141286	0
0	5054	0.543562029027	0
0	5170	0.548806365192	0
0	5283	0.561514477817	0
0	5378	0.564515455757	0
0	5473	0.571384994374	0
0	5580	0.580625916689	0
0	5690	0.61085730225	0
0	5791	0.632934095671	0
0	5856	0.635062002573	0
0	5993	0.65317988404	0
0	6088	0.663282455581	0
0	6198	0.711880617647	0
0	6299	0.727244628093	0
0	6304	0.727445841285	1
0	6314	0.727587240068	2
0	6331	0.727820866387	1
0	6361	0.728617104649	0
0	6588	0.732942273914	0
0	6683	0.735619944411	0
0	6796	0.743091112539	0
0	6909	0.77467773889	0
0	7010	0.793047713605	0
0	7108	0.803378797245	0
0	7209	0.807110410905	0
0	7310	0.817806953828	0
0	7411	0.827502714469	0
0	7510	0.829975099051	0
0	7607	0.837195246889	0
0	7710	0.840717338712	0
0	7813	0.848746703396	0
0	7916	0.85443969888	0
0	8023	0.877580020523	0
0	8118	0.884834995143	0
0	8225	0.899885434384	0
0	8329	0.912940287587	0
0	8424	0.916064504526	0
0	8519	0.921868165176	0
0	8626	0.930668577254	0
0	8727	0.934503473112	0
0	8834	0.94817216492	0
0	8929	0.951084786844	0
0	9036	0.976557746691	0
0	9131	0.985320478674	0
0	9202	0.987322974369	0
0	9327	0.994796926086	0
0	9448	1.014573840164	0
0	9543	1.023316126277	0
0	9650	1.037944118419	0
0	9745	1.040373623583	0
0	9810	1.041973711062	0
0	9967	1.059368368379	0
0	10001	1.060413671378	0
0	10173	1.070952252323	0
0	10284	1.084523274073	0
0	10388	1.116353976259	0
0	10489	1.166225629406	0
0	10500	1.167018733534	1
0	10517	1.167101850512	0
0	10695	1.177441522312	0
0	10800	1.184728873775	0
0	10910	1.218768556096	0
0	11011	1.233563121652	0
0	11112	1.256244342029	0
0	11216	1.300160229998	0
0	11317	1.348255625856	0
0	11321	1.348304301712	1
0	11345	1.34863184002	0
0	11491	1.352072276489	0
0	11623	1.360664820305	0
0	11730	1.366917766158	0
0	11840	1.405797321761	0
0	11935	1.411139113834	0
0	12032	1.417414725678	0
0	12133	1.422136754611	0
0	12144	1.422274673614	1
0	12161	1.422532965978	0
0	12329	1.426633580241	0
0	12448	1.440012229304	0
0	12549	1.456750658399	0
0	12650	1.472332006026	0
0	12747	1.483087956486	0
0	12846	1.486735615197	0
0	12941	1.493736700449	0
0	13048	1.499471716299	0
0	13091	1.500555763228	1
0	13094	1.500717124743	0
0	13241	1.503332814891	0
0	13340	1.505690357522	0
0	13437	1.509513363697	0
0	13562	1.527638902912	0
0	13663	1.546939917101	0
0	13764	1.572657113506	0
0	13868	1.611114819461	0
0	13969	1.629485000488	0
0	14064	1.63870404059	0
0	14165	1.648002149144	0
1	0	0	0
1	0	0	0
1	0	0	0
1	0	0	0
1	0	0	0
1	21	0.016558842123	0
1	150	0.338755759987	0
1	444	0.350975447445	0
1	495	0.351338234228	4224
1	496	0.351338234228	8448
1	497	0.351338234228	12672
1	498	0.351338234228	16896
1	499	0.351338234228	21120
1	500	0.351338234228	25344
1	501	0.351338234228	29568
1	502	0.351338234228	33792
1	503	0.351338234228	38016
1	504	0.351338234228	42240
1	505	0.351338234228	46464
1	506	0.351338234228	50688
1	507	0.351338234228	54912
1	508	0.351338234228	59136
1	509	0.351338234228	63360
1	510	0.351338234228	67584
1	511	0.351338234228	71808
1	512	0.351338234228	76032
1	513	0.351338234228	80256
1	514	0.351338234228	84480
1	515	0.351338234228	88704
1	516	0.351338234228	92928
1	517	0.351338234228	97152
1	518	0.351338234228	101376
1	519	0.351338234228	105600
1	520	0.351338234228	109824
1	526	0.351348234228	105600
1	564	0.351920487654	101376
1	595	0.352356741062	97152
1	626	0.35285299445	92928
1	874	0.358092717101	97152
1	891	0.358386120954	92928
1	998	0.360260774035	88704
1	1028	0.360717027103	84480
1	1096	0.361762480126	80256
1	1327	0.366344901954	76032
1	1415	0.368225850623	80256
1	1442	0.369299554665	76032
1	1558	0.372074207264	71808
1	1590	0.37255045985	67584
1	1623	0.373106712414	63360
1	1634	0.373175865382	67584
1	1736	0.374561364915	63360
1	1768	0.37527761739	59136
1	2088	0.380211798879	54912
1	2202	0.383286451024	50688
1	2315	0.385721103073	46464
1	2330	0.386211097953	50688
1	2438	0.388875754983	46464
1	2535	0.390221206848	42240
1	2567	0.391137458678	38016
1	2631	0.391942910472	33792
1	2782	0.394078853365	38016
1	2847	0.395262657066	42240
1	2881	0.399494532301	38016
1	2916	0.400090783767	33792
1	2948	0.400627035211	29568
1	3142	0.403561137931	25344
1	3174	0.404057389236	21120
1	3413	0.407738853014	16896
1	3524	0.410953504032	12672
1	3590	0.411758955022	8448
1	3735	0.414333605908	4224
1	3801	0.415239056753	0
1	4060	0.42705372821	0
1	4169	0.440729023772	0
1	4270	0.455155886579	0
1	4365	0.461524556538	0
1	4466	0.471970986454	0
1	4567	0.482625323379	0
1	4677	0.520130943671	0
1	4774	0.531704386457	0
1	4873	0.536011513047	0
1	4968	0.541815141286	0
1	5054	0.543562029027	0
1	5170	0.548806365192	0
1	5283	0.561514477817	0
1	5378	0.564515455757	0
1	5473	0.571384994374	0
1	5580	0.580625916689	0
1	5690	0.61085730225	0
1	5791	0.632934095671	0
1	5856	0.635062002573	0
1	5993	0.65317988404	0
1	6088	0.663282455581	0
1	6198	0.711880617647	0
1	6299	0.727244628093	0
1	6304	0.727445841285	4224
1	6314	0.727587240068	8448
1	6331	0.727820866387	4224
1	6361	0.728617104649	0
1	6588	0.732942273914	0
1	6683	0.735619944411	0
1	6796	0.743091112539	0
1	6909	0.77467773889	0
1	7010	0.793047713605	0
1	7108	0.803378797245	0
1	7209	0.807110410905	0
1	7310	0.817806953828	0
1	7411	0.827502714469	0
1	7510	0.829975099051	0
1	7607	0.837195246889	0
1	7710	0.840717338712	0
1	7813	0.848746703396	0
1	7916	0.85443969888	0
1	8023	0.877580020523	0
1	8118	0.884834995143	0
1	8225	0.899885434384	0
1	8329	0.912940287587	0
1	8424	0.916064504526	0
1	8519	0.921868165176	0
1	8626	0.930668577254	0
1	8727	0.934503473112	0
1	8834	0.94817216492	0
1	8929	0.951084786844	0
1	9036	0.976557746691	0
1	9131	0.985320478674	0
1	9202	0.987322974369	0
1	9327	0.994796926086	0
1	9448	1.014573840164	0
1	9543	1.023316126277	0
1	9650	1.037944118419	0
1	9745	1.040373623583	0
1	9810	1.041973711062	0
1	9967	1.059368368379	0
1	10001	1.060413671378	0
1	10173	1.070952252323	0
1	10284	1.084523274073	0
1	10388	1.116353976259	0
1	10489	1.166225629406	0
1	10500	1.167018733534	4224
1	10517	1.167101850512	0
1	10695	1.177441522312	0
1	10800	1.184728873775	0
1	10910	1.218768556096	0
1	11011	1.233563121652	0
1	11112	1.256244342029	0
1	11216	1.300160229998	0
1	11317	1.348255625856	0
1	11321	1.348304301712	4224
1	11345	1.34863184002	0
1	11491	1.352072276489	0
1	11623	1.360664820305	0
1	11730	1.366917766158	0
1	11840	1.405797321761	0
1	11935	1.411139113834	0
1	12032	1.417414725678	0
1	12133	1.422136754611	0
1	12144	1.422274673614	4224
1	12161	1.422532965978	0
1	12329	1.426633580241	0
1	12448	1.440012229304	0
1	12549	1.456750658399	0
1	12650	1.472332006026	0
1	12747	1.483087956486	0
1	12846	1.486735615197	0
1	12941	1.493736700449	0
1	13048	1.499471716299	0
1	13091	1.500555763228	4224
1	13094	1.500717124743	0
1	13241	1.503332814891	0
1	13340	1.505690357522	0
1	13437	1.509513363697	0
1	13562	1.527638902912	0
1	13663	1.546939917101	0
1	13764	1.572657113506	0
1	13868	1.611114819461	0
1	13969	1.629485000488	0
1	14064	1.63870404059	0
1	14165	1.648002149144	0
2	0	0	0
2	53	0.01763414088	1
2	182	0.340530232348	2
2	493	0.351338234228	3
3	0	0	0
4	0	0	0
5	0	0	0
5	0	0	0
5	0	0	0
5	0	0	0
5	0	0	0
5	214	0.340800207367	0
5	287	0.341882443056	1
5	293	0.341892443056	0
6	0	0	0
6	0	0	0
6	0	0	0
6	0	0	0
6	0	0	0
6	214	0.340800207367	0
6	287	0.341882443056	384
6	293	0.341892443056	0
7	0	0	0
7	210	0.340800207367	1
7	274	0.341499422336	2
7	689	0.354118088103	3
7	797	0.355947361572	4
7	835	0.356383644401	5
7	955	0.359531215016	6
7	1127	0.362172374417	7
7	1203	0.363105090503	8
7	1278	0.364564543558	9
7	1385	0.367429996616	10
7	1510	0.370704649555	11
7	1692	0.373991807571	12
7	1860	0.376559272195	13
7	1947	0.377898724696	14
7	2011	0.378851442126	15
7	2044	0.379547725923	16
7	2147	0.381256894577	17
7	2268	0.384371546949	18
7	2381	0.387006199202	19
7	2491	0.389700851323	20
7	2660	0.392352807031	21
7	2736	0.393665525713	22
7	2824	0.394964977524	23
7	3007	0.401452132434	24
7	3090	0.402631583923	25
7	3269	0.405479048149	26
7	3340	0.406718499473	27
7	3371	0.407254784439	28
7	3475	0.409203950792	29
7	3656	0.412764053085	30
7	3689	0.413400338308	31
7	3828	0.415668955063	32
7	3908	0.417054405969	33
7	4018	0.421529056939	34
7	4134	0.42851507781	35
7	4241	0.443050373882	36
7	4342	0.457217237172	37
7	4437	0.463905907369	38
7	4544	0.474572337655	39
7	4643	0.484286674911	40
7	4749	0.52281229655	41
7	4850	0.533825739719	42
7	4945	0.537952866448	43
7	5044	0.543556494886	44
7	5141	0.545803382695	45
7	5242	0.55144771907	46
7	5355	0.563175832099	47
7	5450	0.566716810165	48
7	5549	0.573166349011	49
7	5654	0.582767271655	50
7	5762	0.613398658299	51
7	5868	0.635455452489	52
7	5958	0.637223359452	53
7	6065	0.654541241527	54
7	6166	0.665083813449	55
7	6270	0.713641977225	56
7	6503	0.730871631802	57
7	6534	0.73172793047	58
7	6565	0.732124229164	59
7	6660	0.734743634237	60
7	6757	0.737841304848	61
7	6874	0.745532473238	62
7	6981	0.776639100692	63
7	7082	0.794949076062	64
7	7186	0.805240160083	65
7	7281	0.809151773879	66
7	7388	0.820468317197	67
7	7485	0.829184078151	68
7	7584	0.831956462829	69
7	7683	0.839096610922	70
7	7786	0.842438702864	71
7	7887	0.850748067852	72
7	7988	0.856641063539	73
7	8095	0.879961386016	74
7	8190	0.886636360891	75
7	8300	0.90158680066	76
7	8401	0.915121654358	77
7	8496	0.918765871419	78
7	8593	0.923809532242	79
7	8700	0.933009944655	80
7	8799	0.936464840648	81
7	8906	0.94985353294	82
7	9001	0.953586154994	83
7	9108	0.978679115735	84
7	9210	0.987421848047	85
7	9304	0.9891843438	86
7	9401	0.996678295781	87
7	9520	1.016555210588	88
7	9615	1.025037497004	89
7	9722	1.040065489691	90
7	9834	1.042714994952	91
7	9925	1.044584282498	92
7	10117	1.063895546729	93
7	10148	1.064611859568	94
7	10251	1.073053624792	95
7	10356	1.086184647022	96
7	10460	1.118695350398	97
7	10573	1.168087005349	98
7	10670	1.170501626549	99
7	10773	1.179642898682	100
7	10872	1.186230250382	101
7	10982	1.221409933997	102
7	11083	1.235724500082	103
7	11184	1.258165721286	104
7	11288	1.302281610892	105
7	11401	1.349817008512	106
7	11503	1.352391622759	107
7	11593	1.353993659298	108
7	11701	1.362486203427	109
7	11802	1.369039149517	110
7	11912	1.408538706604	111
7	12007	1.413640498868	112
7	12108	1.419456110924	113
7	12275	1.424770982654	114
7	12306	1.425487310967	115
7	12405	1.428814965845	116
7	12520	1.441333615367	117
7	12621	1.458992045115	118
7	12722	1.474173393324	119
7	12823	1.484729344178	120
7	12918	1.489037003045	121
7	13019	1.495858088557	122
7	13128	1.501093104611	123
7	13218	1.503078513116	124
7	13317	1.505134203353	125
7	13414	1.507731746077	126
7	13515	1.51127475239	127
7	13634	1.529700292285	128
7	13735	1.549221307223	129
7	13836	1.574138504561	130
7	13940	1.613016211993	131
7	14041	1.632046393744	132
7	14138	1.640965434177	133
7	14239	1.649963543069	134
8	0	0	0
9	0	0	0
10	0	0	0
10	0	0	0
10	0	0	0
10	0	0	0
10	0	0	0
10	230	0.341206415255	0
11	0	0	0
11	0	0	0
11	0	0	0
11	0	0	0
11	0	0	0
11	230	0.341206415255	0
12	0	0	0
12	58	0.017634209535	1
12	187	0.340530324389	2
12	218	0.340800286658	3
13	0	0	0
14	0	0	0
15	0	0	0
15	0	0	0
15	0	0	0
15	0	0	0
15	0	0	0
15	41	0.01705827395	0
15	170	0.340394372072	0
15	361	0.347344136668	0
15	432	0.350872387382	0
15	463	0.351078507506	1
15	467	0.351088507506	0
15	551	0.351893960944	1
15	555	0.351903960944	0
15	582	0.352330214361	1
15	614	0.352826467759	2
15	662	0.353549025721	1
15	738	0.354681741139	0
15	879	0.358359594376	1
15	883	0.358369594376	0
15	986	0.360234247495	1
15	990	0.360244247495	0
15	1016	0.360690500572	1
15	1067	0.361133059046	0
15	1084	0.361735953617	1
15	1180	0.36267602824	0
15	1315	0.366318375538	1
15	1319	0.366328375538	0
15	1430	0.369273028309	1
15	1434	0.369283028309	0
15	1546	0.372047680964	1
15	1550	0.372057680964	0
15	1578	0.37252393356	1
15	1610	0.373080186135	2
15	1664	0.373542745446	1
15	1724	0.374534838666	2
15	1756	0.375251091156	3
15	1804	0.375753650616	2
15	1837	0.376170210104	1
15	1918	0.377369662618	0
15	2076	0.380185272745	1
15	2080	0.380195272745	0
15	2190	0.383259924953	1
15	2194	0.383269924953	0
15	2303	0.385694577051	1
15	2307	0.385704577051	0
15	2425	0.388849229025	1
15	2430	0.388859229025	0
15	2522	0.390194680918	1
15	2526	0.390204680918	0
15	2555	0.391110932766	1
15	2605	0.391573493294	0
15	2619	0.391916384577	1
15	2711	0.39297646383	0
15	2869	0.399468006559	1
15	2873	0.399478006559	0
15	2904	0.400064258037	1
15	2936	0.400600509492	2
15	2984	0.401063070661	1
15	3067	0.402282522166	0
15	3130	0.403534612272	1
15	3162	0.404030863587	2
15	3212	0.404473424987	1
15	3248	0.405049986425	0
15	3401	0.40771232744	1
15	3405	0.40772232744	0
15	3512	0.410926978523	1
15	3516	0.410936978523	0
15	3578	0.411732429529	1
15	3582	0.411742429529	0
15	3723	0.414307080467	1
15	3727	0.414317080467	0
15	3789	0.415212531331	1
15	3793	0.415222531331	0
15	3954	0.420317432896	1
15	3958	0.420327432896	0
15	4074	0.427683453385	1
15	4078	0.427693453385	0
15	4181	0.441298748671	1
15	4185	0.441308748671	0
15	4282	0.455765611185	1
15	4286	0.455775611185	0
15	4377	0.462454281009	1
15	4381	0.462464281009	0
15	4480	0.472880710714	1
15	4484	0.472890710714	0
15	4581	0.483355047427	1
15	4585	0.483365047427	0
15	4689	0.521020666959	1
15	4693	0.521030666959	0
15	4788	0.532674109511	1
15	4792	0.532684109511	0
15	4885	0.53666123602	1
15	4889	0.53667123602	0
15	4980	0.542464864142	1
15	4984	0.542474864142	0
15	5081	0.544411751844	1
15	5085	0.544421751844	0
15	5182	0.549636087904	1
15	5186	0.549646087904	0
15	5295	0.562164200277	1
15	5299	0.562174200277	0
15	5390	0.564925178162	1
15	5394	0.564935178162	0
15	5487	0.572194716633	1
15	5491	0.572204716633	0
15	5592	0.581375638763	1
15	5596	0.581385638763	0
15	5702	0.611787023714	1
15	5706	0.611797023714	0
15	5803	0.633823816694	1
15	5807	0.633833816694	0
15	5898	0.635791723557	1
15	5902	0.635801723557	0
15	6005	0.653589604668	1
15	6009	0.653599604668	0
15	6102	0.663812176005	1
15	6106	0.663822176005	0
15	6210	0.712590337099	1
15	6214	0.712600337099	0
15	6319	0.727794347243	1
15	6323	0.727804347243	0
15	6349	0.728590585521	1
15	6379	0.728986823775	2
15	6426	0.729529407237	1
15	6458	0.729945990727	0
15	6600	0.733911992942	1
15	6604	0.733921992942	0
15	6695	0.736069663396	1
15	6699	0.736079663396	0
15	6810	0.744040831366	1
15	6814	0.744050831366	0
15	6921	0.775347457096	1
15	6925	0.775357457096	0
15	7022	0.793797431446	1
15	7026	0.793807431446	0
15	7122	0.803868514887	1
15	7126	0.803878514887	0
15	7221	0.808040128465	1
15	7225	0.808050128465	0
15	7324	0.818736671176	1
15	7328	0.818746671176	0
15	7423	0.827952431635	1
15	7427	0.827962431635	0
15	7522	0.83036481617	1
15	7526	0.83037481617	0
15	7619	0.837684963863	1
15	7623	0.837694963863	0
15	7724	0.841187055617	1
15	7728	0.841197055617	0
15	7827	0.849476420138	1
15	7831	0.849486420138	0
15	7928	0.855209415509	1
15	7932	0.855219415509	0
15	8035	0.878469736694	1
15	8039	0.878479736694	0
15	8130	0.885364711179	1
15	8134	0.885374711179	0
15	8240	0.900555150121	1
15	8244	0.900565150121	0
15	8341	0.913690003067	1
15	8345	0.913700003067	0
15	8436	0.916894219943	1
15	8440	0.916904219943	0
15	8531	0.922677880479	1
15	8535	0.922687880479	0
15	8638	0.931478292385	1
15	8642	0.931488292385	0
15	8739	0.935253188169	1
15	8743	0.935263188169	0
15	8846	0.948601879716	1
15	8850	0.948611879716	0
15	8941	0.951874501576	1
15	8945	0.951884501576	0
15	9048	0.977347460925	1
15	9052	0.977357460925	0
15	9143	0.985830192742	1
15	9147	0.985840192742	0
15	9242	0.987832688398	1
15	9246	0.987842688398	0
15	9339	0.995226639971	1
15	9343	0.995236639971	0
15	9460	1.015123553661	1
15	9464	1.015133553661	0
15	9555	1.024045839601	1
15	9559	1.024055839601	0
15	9662	1.038333831465	1
15	9666	1.038343831465	0
15	9757	1.040943336578	1
15	9761	1.040953336578	0
15	9865	1.043692624004	1
15	9869	1.043702624004	0
15	9979	1.060038081003	1
15	9983	1.060048081003	0
15	10045	1.061643506201	1
15	10055	1.061653506201	0
15	10187	1.071541964724	1
15	10191	1.071551964724	0
15	10296	1.085012986213	1
15	10300	1.085022986213	0
15	10400	1.11702368778	1
15	10404	1.11703368778	0
15	10505	1.167075339962	1
15	10509	1.167085339962	0
15	10610	1.169209961023	1
15	10614	1.169219961023	0
15	10711	1.178271232652	1
15	10715	1.178281232652	0
15	10812	1.185158583983	1
15	10816	1.185168583983	0
15	10922	1.21971826564	1
15	10926	1.21972826564	0
15	11023	1.234012830922	1
15	11027	1.234022830922	0
15	11124	1.256614050867	1
15	11128	1.256624050867	0
15	11228	1.30094993799	1
15	11232	1.30095993799	0
15	11333	1.348605332941	1
15	11337	1.348615332941	0
15	11438	1.350819947055	1
15	11442	1.350829947055	0
15	11533	1.35302198349	1
15	11537	1.35303198349	0
15	11637	1.361094527153	1
15	11641	1.361104527153	0
15	11742	1.367527472884	1
15	11746	1.367537472884	0
15	11852	1.406767027745	1
15	11856	1.406777027745	0
15	11947	1.412048819718	1
15	11951	1.412058819718	0
15	12046	1.418004431449	1
15	12050	1.418014431449	0
15	12149	1.422506460297	1
15	12153	1.422516460297	0
15	12179	1.422962671656	1
15	12228	1.423525302885	0
15	12341	1.427463285834	1
15	12345	1.427473285834	0
15	12460	1.440481934651	1
15	12464	1.440491934651	0
15	12561	1.457660363423	1
15	12565	1.457670363423	0
15	12662	1.472681710767	1
15	12666	1.472691710767	0
15	12761	1.483857661017	1
15	12765	1.483867661017	0
15	12858	1.487685319656	1
15	12862	1.487695319656	0
15	12955	1.494146404787	1
15	12959	1.494156404787	0
15	13060	1.499941420528	1
15	13064	1.499951420528	0
15	13158	1.50168682894	1
15	13162	1.50169682894	0
15	13253	1.503862519047	1
15	13257	1.503872519047	0
15	13354	1.506600061627	1
15	13358	1.506610061627	0
15	13451	1.510023067737	1
15	13455	1.510033067737	0
15	13574	1.528368606609	1
15	13578	1.528378606609	0
15	13675	1.547669620437	1
15	13679	1.547679620437	0
15	13776	1.573126816367	1
15	13780	1.573136816367	0
15	13880	1.611824521601	1
15	13884	1.611834521601	0
15	13981	1.630414702283	1
15	13985	1.630424702283	0
15	14076	1.639453742217	1
15	14080	1.639463742217	0
15	14177	1.648431850605	1
15	14181	1.648441850605	0
16	0	0	0
16	0	0	0
16	0	0	0
16	0	0	0
16	0	0	0
16	41	0.01705827395	0
16	170	0.340394372072	0
16	361	0.347344136668	0
16	432	0.350872387382	0
16	463	0.351078507506	384
16	467	0.351088507506	0
16	551	0.351893960944	4224
16	555	0.351903960944	0
16	582	0.352330214361	4224
16	614	0.352826467759	8448
16	662	0.353549025721	4224
16	738	0.354681741139	0
16	879	0.358359594376	4224
16	883	0.358369594376	0
16	986	0.360234247495	4224
16	990	0.360244247495	0
16	1016	0.360690500572	4224
16	1067	0.361133059046	0
16	1084	0.361735953617	4224
16	1180	0.36267602824	0
16	1315	0.366318375538	4224
16	1319	0.366328375538	0
16	1430	0.369273028309	4224
16	1434	0.369283028309	0
16	1546	0.372047680964	4224
16	1550	0.372057680964	0
16	1578	0.37252393356	4224
16	1610	0.373080186135	8448
16	1664	0.373542745446	4224
16	1724	0.374534838666	8448
16	1756	0.375251091156	12672
16	1804	0.375753650616	8448
16	1837	0.376170210104	4224
16	1918	0.377369662618	0
16	2076	0.380185272745	4224
16	2080	0.380195272745	0
16	2190	0.383259924953	4224
16	2194	0.383269924953	0
16	2303	0.385694577051	4224
16	2307	0.385704577051	0
16	2425	0.388849229025	4224
16	2430	0.388859229025	0
16	2522	0.390194680918	4224
16	2526	0.390204680918	0
16	2555	0.391110932766	4224
16	2605	0.391573493294	0
16	2619	0.391916384577	4224
16	2711	0.39297646383	0
16	2869	0.399468006559	4224
16	2873	0.399478006559	0
16	2904	0.400064258037	4224
16	2936	0.400600509492	8448
16	2984	0.401063070661	4224
16	3067	0.402282522166	0
16	3130	0.403534612272	4224
16	3162	0.404030863587	8448
16	3212	0.404473424987	4224
16	3248	0.405049986425	0
16	3401	0.40771232744	4224
16	3405	0.40772232744	0
16	3512	0.410926978523	4224
16	3516	0.410936978523	0
16	3578	0.411732429529	4224
16	3582	0.411742429529	0
16	3723	0.414307080467	4224
16	3727	0.414317080467	0
16	3789	0.415212531331	4224
16	3793	0.415222531331	0
16	3954	0.420317432896	4224
16	3958	0.420327432896	0
16	4074	0.427683453385	4224
16	4078	0.427693453385	0
16	4181	0.441298748671	4224
16	4185	0.441308748671	0
16	4282	0.455765611185	4224
16	4286	0.455775611185	0
16	4377	0.462454281009	4224
16	4381	0.462464281009	0
16	4480	0.472880710714	4224
16	4484	0.472890710714	0
16	4581	0.483355047427	4224
16	4585	0.483365047427	0
16	4689	0.521020666959	4224
16	4693	0.521030666959	0
16	4788	0.532674109511	4224
16	4792	0.532684109511	0
16	4885	0.53666123602	4224
16	4889	0.53667123602	0
16	4980	0.542464864142	4224
16	4984	0.542474864142	0
16	5081	0.544411751844	4224
16	5085	0.544421751844	0
16	5182	0.549636087904	4224
16	5186	0.549646087904	0
16	5295	0.562164200277	4224
16	5299	0.562174200277	0
16	5390	0.564925178162	4224
16	5394	0.564935178162	0
16	5487	0.572194716633	4224
16	5491	0.572204716633	0
16	5592	0.581375638763	4224
16	5596	0.581385638763	0
16	5702	0.611787023714	4224
16	5706	0.611797023714	0
16	5803	0.633823816694	4224
16	5807	0.633833816694	0
16	5898	0.635791723557	4224
16	5902	0.635801723557	0
16	6005	0.653589604668	4224
16	6009	0.653599604668	0
16	6102	0.663812176005	4224
16	6106	0.663822176005	0
16	6210	0.712590337099	4224
16	6214	0.712600337099	0
16	6319	0.727794347243	4224
16	6323	0.727804347243	0
16	6349	0.728590585521	4224
16	6379	0.728986823775	8448
16	6426	0.729529407237	4224
16	6458	0.729945990727	0
16	6600	0.733911992942	4224
16	6604	0.733921992942	0
16	6695	0.736069663396	4224
16	6699	0.736079663396	0
16	6810	0.744040831366	4224
16	6814	0.744050831366	0
16	6921	0.775347457096	4224
16	6925	0.775357457096	0
16	7022	0.793797431446	4224
16	7026	0.793807431446	0
16	7122	0.803868514887	4224
16	7126	0.803878514887	0
16	7221	0.808040128465	4224
16	7225	0.808050128465	0
16	7324	0.818736671176	4224
16	7328	0.818746671176	0
16	7423	0.827952431635	4224
16	7427	0.827962431635	0
16	7522	0.83036481617	4224
16	7526	0.83037481617	0
16	7619	0.837684963863	4224
16	7623	0.837694963863	0
16	7724	0.841187055617	4224
16	7728	0.841197055617	0
16	7827	0.849476420138	4224
16	7831	0.849486420138	0
16	7928	0.855209415509	4224
16	7932	0.855219415509	0
16	8035	0.878469736694	4224
16	8039	0.878479736694	0
16	8130	0.885364711179	4224
16	8134	0.885374711179	0
16	8240	0.900555150121	4224
16	8244	0.900565150121	0
16	8341	0.913690003067	4224
16	8345	0.913700003067	0
16	8436	0.916894219943	4224
16	8440	0.916904219943	0
16	8531	0.922677880479	4224
16	8535	0.922687880479	0
16	8638	0.931478292385	4224
16	8642	0.931488292385	0
16	8739	0.935253188169	4224
16	8743	0.935263188169	0
16	8846	0.948601879716	4224
16	8850	0.948611879716	0
16	8941	0.951874501576	4224
16	8945	0.951884501576	0
16	9048	0.977347460925	4224
16	9052	0.977357460925	0
16	9143	0.985830192742	4224
16	9147	0.985840192742	0
16	9242	0.987832688398	4224
16	9246	0.987842688398	0
16	9339	0.995226639971	4224
16	9343	0.995236639971	0
16	9460	1.015123553661	4224
16	9464	1.015133553661	0
16	9555	1.024045839601	4224
16	9559	1.024055839601	0
16	9662	1.038333831465	4224
16	9666	1.038343831465	0
16	9757	1.040943336578	4224
16	9761	1.040953336578	0
16	9865	1.043692624004	4224
16	9869	1.043702624004	0
16	9979	1.060038081003	4224
16	9983	1.060048081003	0
16	10045	1.061643506201	4224
16	10055	1.061653506201	0
16	10187	1.071541964724	4224
16	10191	1.071551964724	0
16	10296	1.085012986213	4224
16	10300	1.085022986213	0
16	10400	1.11702368778	4224
16	10404	1.11703368778	0
16	10505	1.167075339962	4224
16	10509	1.167085339962	0
16	10610	1.169209961023	4224
16	10614	1.169219961023	0
16	10711	1.178271232652	4224
16	10715	1.178281232652	0
16	10812	1.185158583983	4224
16	10816	1.185168583983	0
16	10922	1.21971826564	4224
16	10926	1.21972826564	0
16	11023	1.234012830922	4224
16	11027	1.234022830922	0
16	11124	1.256614050867	4224
16	11128	1.256624050867	0
16	11228	1.30094993799	4224
16	11232	1.30095993799	0
16	11333	1.348605332941	4224
16	11337	1.348615332941	0
16	11438	1.350819947055	4224
16	11442	1.350829947055	0
16	11533	1.35302198349	4224
16	11537	1.35303198349	0
16	11637	1.361094527153	4224
16	11641	1.361104527153	0
16	11742	1.367527472884	4224
16	11746	1.367537472884	0
16	11852	1.406767027745	4224
16	11856	1.406777027745	0
16	11947	1.412048819718	4224
16	11951	1.412058819718	0
16	12046	1.418004431449	4224
16	12050	1.418014431449	0
16	12149	1.422506460297	4224
16	12153	1.422516460297	0
16	12179	1.422962671656	4224
16	12228	1.423525302885	0
16	12341	1.427463285834	4224
16	12345	1.427473285834	0
16	12460	1.440481934651	4224
16	12464	1.440491934651	0
16	12561	1.457660363423	4224
16	12565	1.457670363423	0
16	12662	1.472681710767	4224
16	12666	1.472691710767	0
16	12761	1.483857661017	4224
16	12765	1.483867661017	0
16	12858	1.487685319656	4224
16	12862	1.487695319656	0
16	12955	1.494146404787	4224
16	12959	1.494156404787	0
16	13060	1.499941420528	4224
16	13064	1.499951420528	0
16	13158	1.50168682894	4224
16	13162	1.50169682894	0
16	13253	1.503862519047	4224
16	13257	1.503872519047	0
16	13354	1.506600061627	4224
16	13358	1.506610061627	0
16	13451	1.510023067737	4224
16	13455	1.510033067737	0
16	13574	1.528368606609	4224
16	13578	1.528378606609	0
16	13675	1.547669620437	4224
16	13679	1.547679620437	0
16	13776	1.573126816367	4224
16	13780	1.573136816367	0
16	13880	1.611824521601	4224
16	13884	1.611834521601	0
16	13981	1.630414702283	4224
16	13985	1.630424702283	0
16	14076	1.639453742217	4224
16	14080	1.639463742217	0
16	14177	1.648431850605	4224
16	14181	1.648441850605	0
17	0	0	0
17	33	0.016774709071	1
17	162	0.339311620288	2
17	223	0.340800344829	3
17	263	0.341499367218	4
17	409	0.348687227619	5
18	0	0	0
19	0	0	0
20	0	0	0
20	0	0	0
20	0	0	0
20	0	0	0
20	0	0	0
20	198	0.340624332941	0
20	242	0.341303281804	0
20	343	0.347060924558	0
20	378	0.347947348798	1
20	380	0.347957348798	0
20	648	0.353522346735	1
20	650	0.353532346735	0
20	724	0.354655062114	1
20	726	0.354665062114	0
20	757	0.355031620166	1
20	811	0.355973902985	0
20	915	0.358935473534	1
20	917	0.358945473534	0
20	1053	0.361106379804	1
20	1055	0.361116379804	0
20	1166	0.362649348946	1
20	1168	0.362659348946	0
20	1247	0.36390880197	1
20	1249	0.36391880197	0
20	1351	0.366994254968	1
20	1353	0.367004254968	0
20	1467	0.369908907838	1
20	1469	0.369918907838	0
20	1650	0.373516065785	1
20	1652	0.373526065785	0
20	1790	0.375726970881	1
20	1792	0.375736970881	0
20	1823	0.376143530355	1
20	1875	0.376585814041	0
20	1904	0.377342982828	1
20	1961	0.37792526657	0
20	1983	0.378295700238	1
20	2026	0.37887798402	0
20	2111	0.380701152638	1
20	2114	0.380711152638	0
20	2225	0.383635804945	1
20	2227	0.383645804945	0
20	2346	0.386590457143	1
20	2348	0.386600457143	0
20	2461	0.389265109207	1
20	2463	0.389275109207	0
20	2591	0.391546813025	1
20	2593	0.391556813025	0
20	2697	0.392949783513	1
20	2699	0.392959783513	0
20	2777	0.394069235297	1
20	2783	0.394079235297	0
20	2970	0.401036390071	1
20	2972	0.401046390071	0
20	3053	0.402255841535	1
20	3055	0.402265841535	0
20	3198	0.404446744282	1
20	3200	0.404456744282	0
20	3234	0.405023305701	1
20	3284	0.405505590604	0
20	3312	0.406162756999	1
20	3355	0.406745041954	0
20	3435	0.408348208266	1
20	3437	0.408358208266	0
20	3548	0.41134285945	1
20	3550	0.41135285945	0
20	3613	0.412148310484	1
20	3670	0.412790595693	0
20	3759	0.414842961513	1
20	3761	0.414852961513	0
20	3872	0.416638663277	1
20	3874	0.416648663277	0
20	3989	0.421093314153	1
20	3991	0.421103314153	0
20	4107	0.428059334877	1
20	4109	0.428069334877	0
20	4214	0.442234630643	1
20	4216	0.442244630643	0
20	4315	0.456361493634	1
20	4317	0.456371493634	0
20	4410	0.463250163691	1
20	4412	0.463260163691	0
20	4515	0.473756593752	1
20	4517	0.473766593752	0
20	4614	0.483750930803	1
20	4617	0.483760930803	0
20	4722	0.521936551629	1
20	4724	0.521946551629	0
20	4823	0.533309994566	1
20	4825	0.533319994566	0
20	4918	0.537217121208	1
20	4920	0.537227121208	0
20	5015	0.543060749528	1
20	5017	0.543070749528	0
20	5114	0.544807637289	1
20	5116	0.544817637289	0
20	5215	0.550591973545	1
20	5217	0.550601973545	0
20	5328	0.562600086326	1
20	5330	0.562610086326	0
20	5423	0.565741064317	1
20	5425	0.565751064317	0
20	5522	0.572790603027	1
20	5524	0.572800603027	0
20	5625	0.581951525468	1
20	5627	0.581961525468	0
20	5735	0.612722911465	1
20	5737	0.612732911465	0
20	5836	0.634579705188	1
20	5838	0.634589705188	0
20	5931	0.636447612114	1
20	5933	0.636457612114	0
20	6038	0.654025493823	1
20	6040	0.654035493823	0
20	6139	0.664648065521	1
20	6141	0.664658065521	0
20	6243	0.713206228269	1
20	6245	0.713216228269	0
20	6412	0.729502715501	1
20	6414	0.729512715501	0
20	6444	0.729919298977	1
20	6476	0.730335882481	2
20	6518	0.73089818113	1
20	6549	0.731754479816	0
20	6633	0.734367884833	1
20	6635	0.734377884833	0
20	6728	0.737045555379	1
20	6730	0.737055555379	0
20	6845	0.744576723606	1
20	6847	0.744586723606	0
20	6954	0.7757833504	1
20	6956	0.7757933504	0
20	7055	0.794253325381	1
20	7057	0.794263325381	0
20	7157	0.804804409183	1
20	7159	0.804814409183	0
20	7254	0.808756022896	1
20	7256	0.808766022896	0
20	7361	0.819512565974	1
20	7363	0.819522565974	0
20	7456	0.828568326743	1
20	7458	0.828578326743	0
20	7557	0.831040711362	1
20	7559	0.831050711362	0
20	7654	0.838280859303	1
20	7656	0.838290859303	0
20	7757	0.841702951174	1
20	7759	0.841712951174	0
20	7860	0.850192315985	1
20	7862	0.850202315985	0
20	7961	0.855765311547	1
20	7963	0.855775311547	0
20	8068	0.879025633528	1
20	8070	0.879035633528	0
20	8163	0.886260608261	1
20	8165	0.886270608261	0
20	8273	0.901131047712	1
20	8275	0.901141047712	0
20	8374	0.914685901122	1
20	8376	0.914695901122	0
20	8469	0.917810118105	1
20	8471	0.917820118105	0
20	8564	0.923053778821	1
20	8566	0.923063778821	0
20	8671	0.932114191038	1
20	8673	0.932124191038	0
20	8772	0.936089086958	1
20	8774	0.936099086958	0
20	8879	0.949477778964	1
20	8881	0.949487778964	0
20	8974	0.952810400939	1
20	8976	0.952820400939	0
20	9081	0.977783361145	1
20	9083	0.977793361145	0
20	9176	0.986786093271	1
20	9178	0.986796093271	0
20	9275	0.988508588986	1
20	9277	0.988518588986	0
20	9372	0.995742540807	1
20	9374	0.995752540807	0
20	9493	1.01589945519	1
20	9495	1.01590945519	0
20	9588	1.024481741425	1
20	9590	1.024491741425	0
20	9695	1.039089733791	1
20	9697	1.039099733791	0
20	9790	1.041779238996	1
20	9792	1.041789238996	0
20	9898	1.044088526502	1
20	9900	1.044098526502	0
20	10017	1.061013984083	1
20	10019	1.061023984083	0
20	10090	1.062359790321	1
20	10132	1.063922103144	0
20	10222	1.072177868188	1
20	10224	1.072187868188	0
20	10329	1.085548890137	1
20	10331	1.085558890137	0
20	10433	1.117879592818	1
20	10435	1.117889592818	0
20	10539	1.167571246713	1
20	10541	1.167581246713	0
20	10643	1.170085867861	1
20	10645	1.170095867861	0
20	10744	1.179007139798	1
20	10746	1.179017139798	0
20	10845	1.185614491357	1
20	10847	1.185624491357	0
20	10955	1.220534174219	1
20	10957	1.220544174219	0
20	11056	1.234888739997	1
20	11058	1.234898739997	0
20	11157	1.25736996072	1
20	11159	1.25737996072	0
20	11261	1.301765849379	1
20	11263	1.301775849379	0
20	11367	1.349361245978	1
20	11369	1.349371245978	0
20	11471	1.35159586017	1
20	11473	1.35160586017	0
20	11566	1.353597896674	1
20	11568	1.353607896674	0
20	11672	1.361790440621	1
20	11674	1.361800440621	0
20	11775	1.36806338657	1
20	11777	1.36807338657	0
20	11885	1.407762942808	1
20	11887	1.407772942808	0
20	11980	1.412964734962	1
20	11982	1.412974734962	0
20	12081	1.418740346893	1
20	12083	1.418750346893	0
20	12214	1.423498587265	1
20	12216	1.423508587265	0
20	12248	1.423895218508	1
20	12290	1.424797546806	0
20	12376	1.428359201612	1
20	12378	1.428369201612	0
20	12493	1.440917850865	1
20	12495	1.440927850865	0
20	12594	1.458056280233	1
20	12596	1.458066280233	0
20	12695	1.473537628115	1
20	12697	1.473547628115	0
20	12796	1.484333578741	1
20	12798	1.484343578741	0
20	12891	1.488221237515	1
20	12893	1.488231237515	0
20	12992	1.49494232288	1
20	12994	1.49495232288	0
20	13100	1.500717338822	1
20	13102	1.500727338822	0
20	13191	1.502162747284	1
20	13193	1.502172747284	0
20	13288	1.504618437476	1
20	13290	1.504628437476	0
20	13387	1.507135980144	1
20	13389	1.507145980144	0
20	13486	1.510778986381	1
20	13488	1.510788986381	0
20	13607	1.528784525879	1
20	13609	1.528794525879	0
20	13708	1.548565540396	1
20	13710	1.548575540396	0
20	13809	1.573522737196	1
20	13811	1.573532737196	0
20	13913	1.612460443788	1
20	13915	1.612470443788	0
20	14014	1.631330625128	1
20	14016	1.631340625128	0
20	14109	1.640089665368	1
20	14111	1.640099665368	0
20	14210	1.648987774066	1
20	14212	1.648997774066	0
21	0	0	0
21	0	0	0
21	0	0	0
21	0	0	0
21	0	0	0
21	198	0.340624332941	0
21	242	0.341303281804	0
21	343	0.347060924558	0
21	378	0.347947348798	384
21	380	0.347957348798	0
21	648	0.353522346735	4224
21	650	0.353532346735	0
21	724	0.354655062114	4224
21	726	0.354665062114	0
21	757	0.355031620166	4224
21	811	0.355973902985	0
21	915	0.358935473534	4224
21	917	0.358945473534	0
21	1053	0.361106379804	4224
21	1055	0.361116379804	0
21	1166	0.362649348946	4224
21	1168	0.362659348946	0
21	1247	0.36390880197	4224
21	1249	0.36391880197	0
21	1351	0.366994254968	4224
21	1353	0.367004254968	0
21	1467	0.369908907838	4224
21	1469	0.369918907838	0
21	1650	0.373516065785	4224
21	1652	0.373526065785	0
21	1790	0.375726970881	4224
21	1792	0.375736970881	0
21	1823	0.376143530355	4224
21	1875	0.376585814041	0
21	1904	0.377342982828	4224
21	1961	0.37792526657	0
21	1983	0.378295700238	4224
21	2026	0.37887798402	0
21	2111	0.380701152638	4224
21	2114	0.380711152638	0
21	2225	0.383635804945	4224
21	2227	0.383645804945	0
21	2346	0.386590457143	4224
21	2348	0.386600457143	0
21	2461	0.389265109207	4224
21	2463	0.389275109207	0
21	2591	0.391546813025	4224
21	2593	0.391556813025	0
21	2697	0.392949783513	4224
21	2699	0.392959783513	0
21	2777	0.394069235297	4224
21	2783	0.394079235297	0
21	2970	0.401036390071	4224
21	2972	0.401046390071	0
21	3053	0.402255841535	4224
21	3055	0.402265841535	0
21	3198	0.404446744282	4224
21	3200	0.404456744282	0
21	3234	0.405023305701	4224
21	3284	0.405505590604	0
21	3312	0.406162756999	4224
21	3355	0.406745041954	0
21	3435	0.408348208266	4224
21	3437	0.408358208266	0
21	3548	0.41134285945	4224
21	3550	0.41135285945	0
21	3613	0.412148310484	4224
21	3670	0.412790595693	0
21	3759	0.414842961513	4224
21	3761	0.414852961513	0
21	3872	0.416638663277	4224
21	3874	0.416648663277	0
21	3989	0.421093314153	4224
21	3991	0.421103314153	0
21	4107	0.428059334877	4224
21	4109	0.428069334877	0
21	4214	0.442234630643	4224
21	4216	0.442244630643	0
21	4315	0.456361493634	4224
21	4317	0.456371493634	0
21	4410	0.463250163691	4224
21	4412	0.463260163691	0
21	4515	0.473756593752	4224
21	4517	0.473766593752	0
21	4614	0.483750930803	4224
21	4617	0.483760930803	0
21	4722	0.521936551629	4224
21	4724	0.521946551629	0
21	4823	0.533309994566	4224
21	4825	0.533319994566	0
21	4918	0.537217121208	4224
21	4920	0.537227121208	0
21	5015	0.543060749528	4224
21	5017	0.543070749528	0
21	5114	0.544807637289	4224
21	5116	0.544817637289	0
21	5215	0.550591973545	4224
21	5217	0.550601973545	0
21	5328	0.562600086326	4224
21	5330	0.562610086326	0
21	5423	0.565741064317	4224
21	5425	0.565751064317	0
21	5522	0.572790603027	4224
21	5524	0.572800603027	0
21	5625	0.581951525468	4224
21	5627	0.581961525468	0
21	5735	0.612722911465	4224
21	5737	0.612732911465	0
21	5836	0.634579705188	4224
21	5838	0.634589705188	0
21	5931	0.636447612114	4224
21	5933	0.636457612114	0
21	6038	0.654025493823	4224
21	6040	0.654035493823	0
21	6139	0.664648065521	4224
21	6141	0.664658065521	0
21	6243	0.713206228269	4224
21	6245	0.713216228269	0
21	6412	0.729502715501	4224
21	6414	0.729512715501	0
21	6444	0.729919298977	4224
21	6476	0.730335882481	8448
21	6518	0.73089818113	4224
21	6549	0.731754479816	0
21	6633	0.734367884833	4224
21	6635	0.734377884833	0
21	6728	0.737045555379	4224
21	6730	0.737055555379	0
21	6845	0.744576723606	4224
21	6847	0.744586723606	0
21	6954	0.7757833504	4224
21	6956	0.7757933504	0
21	7055	0.794253325381	4224
21	7057	0.794263325381	0
21	7157	0.804804409183	4224
21	7159	0.804814409183	0
21	7254	0.808756022896	4224
21	7256	0.808766022896	0
21	7361	0.819512565974	4224
21	7363	0.819522565974	0
21	7456	0.828568326743	4224
21	7458	0.828578326743	0
21	7557	0.831040711362	4224
21	7559	0.831050711362	0
21	7654	0.838280859303	4224
21	7656	0.838290859303	0
21	7757	0.841702951174	4224
21	7759	0.841712951174	0
21	7860	0.850192315985	4224
21	7862	0.850202315985	0
21	7961	0.855765311547	4224
21	7963	0.855775311547	0
21	8068	0.879025633528	4224
21	8070	0.879035633528	0
21	8163	0.886260608261	4224
21	8165	0.886270608261	0
21	8273	0.901131047712	4224
21	8275	0.901141047712	0
21	8374	0.914685901122	4224
21	8376	0.914695901122	0
21	8469	0.917810118105	4224
21	8471	0.917820118105	0
21	8564	0.923053778821	4224
21	8566	0.923063778821	0
21	8671	0.932114191038	4224
21	8673	0.932124191038	0
21	8772	0.936089086958	4224
21	8774	0.936099086958	0
21	8879	0.949477778964	4224
21	8881	0.949487778964	0
21	8974	0.952810400939	4224
21	8976	0.952820400939	0
21	9081	0.977783361145	4224
21	9083	0.977793361145	0
21	9176	0.986786093271	4224
21	9178	0.986796093271	0
21	9275	0.988508588986	4224
21	9277	0.988518588986	0
21	9372	0.995742540807	4224
21	9374	0.995752540807	0
21	9493	1.01589945519	4224
21	9495	1.01590945519	0
21	9588	1.024481741425	4224
21	9590	1.024491741425	0
21	9695	1.039089733791	4224
21	9697	1.039099733791	0
21	9790	1.041779238996	4224
21	9792	1.041789238996	0
21	9898	1.044088526502	4224
21	9900	1.044098526502	0
21	10017	1.061013984083	4224
21	10019	1.061023984083	0
21	10090	1.062359790321	4224
21	10132	1.063922103144	0
21	10222	1.072177868188	4224
21	10224	1.072187868188	0
21	10329	1.085548890137	4224
21	10331	1.085558890137	0
21	10433	1.117879592818	4224
21	10435	1.117889592818	0
21	10539	1.167571246713	4224
21	10541	1.167581246713	0
21	10643	1.170085867861	4224
21	10645	1.170095867861	0
21	10744	1.179007139798	4224
21	10746	1.179017139798	0
21	10845	1.185614491357	4224
21	10847	1.185624491357	0
21	10955	1.220534174219	4224
21	10957	1.220544174219	0
21	11056	1.234888739997	4224
21	11058	1.234898739997	0
21	11157	1.25736996072	4224
21	11159	1.25737996072	0
21	11261	1.301765849379	4224
21	11263	1.301775849379	0
21	11367	1.349361245978	4224
21	11369	1.349371245978	0
21	11471	1.35159586017	4224
21	11473	1.35160586017	0
21	11566	1.353597896674	4224
21	11568	1.353607896674	0
21	11672	1.361790440621	4224
21	11674	1.361800440621	0
21	11775	1.36806338657	4224
21	11777	1.36807338657	0
21	11885	1.407762942808	4224
21	11887	1.407772942808	0
21	11980	1.412964734962	4224
21	11982	1.412974734962	0
21	12081	1.418740346893	4224
21	12083	1.418750346893	0
21	12214	1.423498587265	4224
21	12216	1.423508587265	0
21	12248	1.423895218508	4224
21	12290	1.424797546806	0
21	12376	1.428359201612	4224
21	12378	1.428369201612	0
21	12493	1.440917850865	4224
21	12495	1.440927850865	0
21	12594	1.458056280233	4224
21	12596	1.458066280233	0
21	12695	1.473537628115	4224
21	12697	1.473547628115	0
21	12796	1.484333578741	4224
21	12798	1.484343578741	0
21	12891	1.488221237515	4224
21	12893	1.488231237515	0
21	12992	1.49494232288	4224
21	12994	1.49495232288	0
21	13100	1.500717338822	4224
21	13102	1.500727338822	0
21	13191	1.502162747284	4224
21	13193	1.502172747284	0
21	13288	1.504618437476	4224
21	13290	1.504628437476	0
21	13387	1.507135980144	4224
21	13389	1.507145980144	0
21	13486	1.510778986381	4224
21	13488	1.510788986381	0
21	13607	1.528784525879	4224
21	13609	1.528794525879	0
21	13708	1.548565540396	4224
21	13710	1.548575540396	0
21	13809	1.573522737196	4224
21	13811	1.573532737196	0
21	13913	1.612460443788	4224
21	13915	1.612470443788	0
21	14014	1.631330625128	4224
21	14016	1.631340625128	0
21	14109	1.640089665368	4224
21	14111	1.640099665368	0
21	14210	1.648987774066	4224
21	14212	1.648997774066	0
22	0	0	0
22	63	0.017634274998	1
22	192	0.340530383951	2
22	268	0.341499368607	3
22	317	0.342342184182	4
23	0	0	0
24	0	0	0
25	0	0	0
25	0	0	0
25	0	0	0
25	0	0	0
25	0	0	0.002
25	23	0.016728842123	0
25	23	0.016728842123	0
25	23	0.016728842123	0.002
25	24	0.016728842123	0
25	24	0.016728842123	0.1
25	29	0.016774175456	0.002
25	29	0.016774175456	0
25	29	0.016774175456	0.002
25	29	0.016774175456	0.002
25	29	0.016774175456	0.002
25	45	0.017588807547	0
25	45	0.017588807547	0.01
25	50	0.01763414088	0.002
25	152	0.339265759987	0
25	152	0.339265759987	0
25	152	0.339265759987	0.002
25	152	0.339265759987	0.002
25	153	0.339265759987	0
25	153	0.339265759987	0.1
25	158	0.33931109332	0.002
25	158	0.33931109332	0
25	158	0.33931109332	0.002
25	158	0.33931109332	0.002
25	158	0.33931109332	0.002
25	174	0.340484899015	0
25	174	0.340484899015	0.01
25	179	0.340530232348	0.002
25	205	0.340755420554	0.002
25	366	0.347914663459	0
25	366	0.347914663459	0.01
25	371	0.347947196792	0.002
25	385	0.347958436486	0.002
25	414	0.348697754394	0
25	414	0.348697754394	0.01
25	419	0.348713754394	0.002
25	436	0.350942914112	0.01
25	441	0.350975447445	0.002
25	453	0.351045447445	0
25	453	0.351045447445	0
25	453	0.351045447445	0.002
25	453	0.351045447445	0.002
25	454	0.351045447445	0
25	454	0.351045447445	0.1
25	459	0.351077980778	0.002
25	459	0.351077980778	0
25	459	0.351077980778	0.002
25	459	0.351077980778	0.002
25	459	0.351077980778	0.002
25	469	0.351089034233	0
25	469	0.351089034233	0.01
25	474	0.351105034233	0.002
25	484	0.351295034228	0.01
25	490	0.351338234228	0.002
25	526	0.351348234228	0
25	526	0.351348234228	0
25	526	0.351348234228	0.002
25	526	0.351348234228	0.002
25	527	0.351348234228	0
25	527	0.351348234228	0.1
25	532	0.351364234228	0.002
25	532	0.351364234228	0
25	532	0.351364234228	0.002
25	532	0.351364234228	0.002
25	532	0.351364234228	0.002
25	540	0.351594234228	0
25	540	0.351594234228	0
25	540	0.351594234228	0.002
25	541	0.351594234228	0
25	541	0.351594234228	0.1
25	547	0.351893434228	0.002
25	547	0.351893434228	0
25	547	0.351893434228	0.002
25	547	0.351893434228	0.002
25	547	0.351893434228	0.002
25	557	0.351904487654	0
25	557	0.351904487654	0.01
25	563	0.351920487654	0.002
25	572	0.352030487654	0
25	572	0.352030487654	0
25	572	0.352030487654	0.002
25	572	0.352030487654	0.002
25	573	0.352030487654	0
25	573	0.352030487654	0.1
25	578	0.352329687654	0.002
25	578	0.352329687654	0
25	578	0.352329687654	0.002
25	578	0.352329687654	0.002
25	578	0.352329687654	0.002
25	588	0.352340741062	0
25	588	0.352340741062	0.01
25	594	0.352356741062	0.002
25	604	0.352526741062	0
25	604	0.352526741062	0
25	604	0.352526741062	0.002
25	604	0.352526741062	0.002
25	605	0.352526741062	0
25	605	0.352526741062	0.1
25	610	0.352825941062	0.002
25	610	0.352825941062	0
25	610	0.352825941062	0.002
25	610	0.352825941062	0.002
25	610	0.352825941062	0.002
25	620	0.35283699445	0
25	620	0.35283699445	0.01
25	625	0.35285299445	0.002
25	636	0.353222994442	0.01
25	641	0.353522194442	0.002
25	655	0.353533434482	0.002
25	667	0.353732194442	0
25	667	0.353732194442	0
25	667	0.353732194442	0.002
25	668	0.353732194442	0
25	668	0.353732194442	0.1
25	679	0.354031394442	0.002
25	679	0.354031394442	0
25	679	0.354031394442	0.002
25	679	0.354031394442	0.002
25	679	0.354031394442	0.002
25	712	0.35435570976	0
25	712	0.35435570976	0.01
25	717	0.35465490976	0.002
25	731	0.354666149873	0.002
25	745	0.354732267791	0
25	745	0.354732267791	0.01
25	750	0.355031467791	0.002
25	764	0.355042707928	0.002
25	775	0.355421467791	0
25	775	0.355421467791	0
25	775	0.355421467791	0.002
25	776	0.355421467791	0
25	776	0.355421467791	0.1
25	787	0.355720667791	0.002
25	787	0.355720667791	0
25	787	0.355720667791	0.002
25	787	0.355720667791	0.002
25	787	0.355720667791	0.002
25	825	0.356350667791	0
25	825	0.356350667791	0
25	825	0.356350667791	0.002
25	826	0.356350667791	0
25	826	0.356350667791	0.1
25	855	0.356649867791	0.002
25	855	0.356649867791	0
25	855	0.356649867791	0.002
25	855	0.356649867791	0.002
25	855	0.356649867791	0.002
25	865	0.358059867791	0
25	865	0.358059867791	0
25	865	0.358059867791	0.002
25	866	0.358059867791	0
25	866	0.358059867791	0.1
25	875	0.358359067791	0.002
25	875	0.358359067791	0
25	875	0.358359067791	0.002
25	875	0.358359067791	0.002
25	875	0.358359067791	0.002
25	885	0.358370120954	0
25	885	0.358370120954	0.01
25	890	0.358386120954	0.002
25	901	0.358636120949	0.01
25	908	0.358935320949	0.002
25	922	0.358946561337	0.002
25	933	0.359205320949	0
25	933	0.359205320949	0
25	933	0.359205320949	0.002
25	934	0.359205320949	0
25	934	0.359205320949	0.1
25	945	0.359504520949	0.002
25	945	0.359504520949	0
25	945	0.359504520949	0.002
25	945	0.359504520949	0.002
25	945	0.359504520949	0.002
25	976	0.359934520949	0
25	976	0.359934520949	0
25	976	0.359934520949	0.002
25	977	0.359934520949	0
25	977	0.359934520949	0.1
25	982	0.360233720949	0.002
25	982	0.360233720949	0
25	982	0.360233720949	0.002
25	982	0.360233720949	0.002
25	982	0.360233720949	0.002
25	992	0.360244774035	0
25	992	0.360244774035	0.01
25	997	0.360260774035	0.002
25	1006	0.360390774035	0
25	1006	0.360390774035	0
25	1006	0.360390774035	0.002
25	1006	0.360390774035	0.002
25	1007	0.360390774035	0
25	1007	0.360390774035	0.1
25	1012	0.360689974035	0.002
25	1012	0.360689974035	0
25	1012	0.360689974035	0.002
25	1012	0.360689974035	0.002
25	1012	0.360689974035	0.002
25	1022	0.360701027103	0
25	1022	0.360701027103	0.01
25	1027	0.360717027103	0.002
25	1038	0.360807027101	0.01
25	1046	0.361106227101	0.002
25	1060	0.36111746763	0.002
25	1074	0.361436227101	0
25	1074	0.361436227101	0
25	1074	0.361436227101	0.002
25	1075	0.361436227101	0
25	1075	0.361436227101	0.1
25	1080	0.361735427101	0.002
25	1080	0.361735427101	0
25	1080	0.361735427101	0.002
25	1080	0.361735427101	0.002
25	1080	0.361735427101	0.002
25	1090	0.361746480126	0
25	1090	0.361746480126	0.01
25	1095	0.361762480126	0.002
25	1105	0.361872480126	0
25	1105	0.361872480126	0
25	1105	0.361872480126	0.002
25	1105	0.361872480126	0.002
25	1106	0.361872480126	0
25	1106	0.361872480126	0.1
25	1119	0.362171680126	0.002
25	1119	0.362171680126	0
25	1119	0.362171680126	0.002
25	1119	0.362171680126	0.002
25	1119	0.362171680126	0.002
25	1152	0.362349996159	0
25	1152	0.362349996159	0.01
25	1159	0.362649196159	0.002
25	1173	0.362660436788	0.002
[...]
94	13133	1.501093257129	549
94	13223	1.50307866566	549
94	13322	1.505134355923	549
94	13419	1.507731898682	549
94	13520	1.511274905042	549
94	13639	1.529700445181	549
94	13740	1.549221460378	549
94	13841	1.574138658046	549
94	13945	1.613016365994	549
94	14046	1.632046547998	549
94	14143	1.640965588549	549
94	14244	1.649963697562	549
95	342	0.347060924558	28
96	360	0.347344136668	28
97	372	0.347947196792	49
97	642	0.353522194442	549
97	718	0.35465490976	549
97	751	0.355031467791	549
97	909	0.358935320949	549
97	1047	0.361106227101	549
97	1160	0.362649196159	549
97	1241	0.363908649116	549
97	1345	0.366994101947	549
97	1461	0.369908754658	549
97	1644	0.373515912411	549
97	1784	0.375726817387	549
97	1817	0.376143376838	549
97	1898	0.377342829247	549
97	1977	0.378295546605	549
97	2105	0.380700998875	549
97	2219	0.383635651023	549
97	2340	0.386590303061	549
97	2455	0.389264954981	549
97	2585	0.391546658675	549
97	2691	0.392949629088	549
97	2771	0.394069080811	549
97	2964	0.401036235208	549
97	3047	0.402255686606	549
97	3192	0.404446589234	549
97	3228	0.405023150622	549
97	3306	0.406162601859	549
97	3429	0.408348053008	549
97	3542	0.41134270403	549
97	3607	0.41214815502	549
97	3753	0.414842805903	549
97	3866	0.416638507571	549
97	3983	0.421093158205	549
97	4101	0.428059178553	549
97	4208	0.442234473551	549
97	4309	0.456361335779	549
97	4404	0.463250005464	549
97	4509	0.473756434956	549
97	4608	0.483750771467	549
97	4716	0.521936390229	549
97	4817	0.533309832552	549
97	4912	0.537216958982	549
97	5009	0.543060586986	549
97	5108	0.544807474653	549
97	5209	0.550591810597	549
97	5322	0.562599922728	549
97	5417	0.56574090055	549
97	5516	0.57279043888	549
97	5619	0.581951360826	549
97	5729	0.61272274516	549
97	5830	0.634579537702	549
97	5925	0.636447444528	549
97	6032	0.654025325288	549
97	6133	0.664647896412	549
97	6237	0.713206056539	549
97	6406	0.729502542891	549
97	6438	0.729919126345	549
97	6470	0.730335709826	549
97	6627	0.734367711961	549
97	6722	0.737045382362	549
97	6839	0.744576550182	549
97	6948	0.775783175294	549
97	7049	0.794253149278	549
97	7151	0.80480423251	549
97	7248	0.80875584601	549
97	7355	0.819512388509	549
97	7450	0.828568148789	549
97	7551	0.831040533275	549
97	7648	0.838280680826	549
97	7751	0.841702772512	549
97	7854	0.850192136866	549
97	7955	0.855765132127	549
97	8062	0.879025452854	549
97	8157	0.886260427197	549
97	8267	0.901130865847	549
97	8368	0.914685718527	549
97	8463	0.917809935342	549
97	8558	0.923053595775	549
97	8665	0.932114007503	549
97	8766	0.93608890321	549
97	8873	0.949477594495	549
97	8968	0.952810216289	549
97	9075	0.97778317515	549
97	9170	0.986785906792	549
97	9269	0.988508402414	549
97	9366	0.995742353846	549
97	9487	1.015899267143	549
97	9582	1.024481552916	549
97	9689	1.039089544496	549
97	9784	1.041779049557	549
97	9892	1.044088336938	549
97	10011	1.061013793608	549
97	10084	1.062359599774	549
97	10216	1.072177677113	549
97	10323	1.085548698343	549
97	10427	1.117879399284	549
97	10533	1.167571050508	549
97	10637	1.170085671521	549
97	10738	1.179006942978	549
97	10839	1.185614294182	549
97	10949	1.220533975169	549
97	11050	1.234888540176	549
97	11151	1.25736975969	549
97	11255	1.301765645966	549
97	11361	1.349361040012	549
97	11465	1.351595654083	549
97	11560	1.35359769048	549
97	11666	1.361790233988	549
97	11769	1.3680631796	549
97	11879	1.40776273371	549
97	11974	1.412964525585	549
97	12075	1.418740137206	549
97	12208	1.423498377324	549
97	12242	1.423895008545	549
97	12370	1.42835899141	549
97	12487	1.44091763999	549
97	12588	1.458056068439	549
97	12689	1.473537415492	549
97	12790	1.484333365539	549
97	12885	1.488221024105	549
97	12986	1.49494210911	549
97	13094	1.500717124743	549
97	13185	1.502162533128	549
97	13282	1.504618223189	549
97	13381	1.507135765722	549
97	13480	1.510778771763	549
97	13601	1.528784310298	549
97	13702	1.548565323756	549
97	13803	1.57352251922	549
97	13907	1.612460223729	549
97	14008	1.631330404061	549
97	14103	1.640089443833	549
97	14204	1.648987552056	549
98	403	0.348687090057	69
99	431	0.350872387382	28
100	443	0.350975447445	28
101	524	0.351338386417	69
102	681	0.354031921115	549
102	789	0.355721194429	549
102	840	0.356383782057	549
102	947	0.35950504751	549
102	1122	0.362172206633	549
102	1208	0.363105228245	549
102	1390	0.367430134413	549
102	1501	0.370438480997	549
102	1682	0.373885638679	549
102	1865	0.376559410108	549
102	1939	0.377752555437	549
102	2152	0.38125703255	549
102	2260	0.384185377082	549
102	2386	0.387006337249	549
102	2655	0.392352636365	549
102	2741	0.393665663843	549
102	2816	0.394958806651	549
102	3012	0.401452270664	549
102	3095	0.402631722168	549
102	3274	0.40547918643	549
102	3467	0.409057778561	549
102	3648	0.4126978805	549
102	3833	0.415669093474	549
102	3913	0.417054544397	549
102	9826	1.042583424025	549
102	10578	1.168087153482	549
102	11406	1.349817159031	549
103	690	0.354118088103	500
103	798	0.355947361572	500
103	836	0.356383644401	500
103	956	0.359531215016	500
103	1128	0.362172374417	500
103	1204	0.363105090503	500
103	1279	0.364564543558	500
103	1386	0.367429996616	500
103	1511	0.370704649555	500
103	1693	0.373991807571	500
103	1861	0.376559272195	500
103	1948	0.377898724696	500
103	2012	0.378851442126	500
103	2045	0.379547725923	500
103	2148	0.381256894577	500
103	2269	0.384371546949	500
103	2382	0.387006199202	500
103	2492	0.389700851323	500
103	2661	0.392352807031	500
103	2737	0.393665525713	500
103	2825	0.394964977524	500
103	3008	0.401452132434	500
103	3091	0.402631583923	500
103	3270	0.405479048149	500
103	3341	0.406718499473	500
103	3372	0.407254784439	500
103	3476	0.409203950792	500
103	3657	0.412764053085	500
103	3690	0.413400338308	500
103	3829	0.415668955063	500
103	3909	0.417054405969	500
103	4019	0.421529056939	500
103	4135	0.42851507781	500
103	4242	0.443050373882	500
103	4343	0.457217237172	500
103	4438	0.463905907369	500
103	4545	0.474572337655	500
103	4644	0.484286674911	500
103	4750	0.52281229655	500
103	4851	0.533825739719	500
103	4946	0.537952866448	500
103	5045	0.543556494886	500
103	5142	0.545803382695	500
103	5243	0.55144771907	500
103	5356	0.563175832099	500
103	5451	0.566716810165	500
103	5550	0.573166349011	500
103	5655	0.582767271655	500
103	5763	0.613398658299	500
103	5869	0.635455452489	500
103	5959	0.637223359452	500
103	6066	0.654541241527	500
103	6167	0.665083813449	500
103	6271	0.713641977225	500
103	6504	0.730871631802	500
103	6535	0.73172793047	500
103	6566	0.732124229164	500
103	6661	0.734743634237	500
103	6758	0.737841304848	500
103	6875	0.745532473238	500
103	6982	0.776639100692	500
103	7083	0.794949076062	500
103	7187	0.805240160083	500
103	7282	0.809151773879	500
103	7389	0.820468317197	500
103	7486	0.829184078151	500
103	7585	0.831956462829	500
103	7684	0.839096610922	500
103	7787	0.842438702864	500
103	7888	0.850748067852	500
103	7989	0.856641063539	500
103	8096	0.879961386016	500
103	8191	0.886636360891	500
103	8301	0.90158680066	500
103	8402	0.915121654358	500
103	8497	0.918765871419	500
103	8594	0.923809532242	500
103	8701	0.933009944655	500
103	8800	0.936464840648	500
103	8907	0.94985353294	500
103	9002	0.953586154994	500
103	9109	0.978679115735	500
103	9211	0.987421848047	500
103	9305	0.9891843438	500
103	9402	0.996678295781	500
103	9521	1.016555210588	500
103	9616	1.025037497004	500
103	9723	1.040065489691	500
103	9835	1.042714994952	500
103	9926	1.044584282498	500
103	10118	1.063895546729	500
103	10149	1.064611859568	500
103	10252	1.073053624792	500
103	10357	1.086184647022	500
103	10461	1.118695350398	500
103	10574	1.168087005349	500
103	10671	1.170501626549	500
103	10774	1.179642898682	500
103	10873	1.186230250382	500
103	10983	1.221409933997	500
103	11084	1.235724500082	500
103	11185	1.258165721286	500
103	11289	1.302281610892	500
103	11402	1.349817008512	500
103	11504	1.352391622759	500
103	11594	1.353993659298	500
103	11702	1.362486203427	500
103	11803	1.369039149517	500
103	11913	1.408538706604	500
103	12008	1.413640498868	500
103	12109	1.419456110924	500
103	12276	1.424770982654	500
103	12307	1.425487310967	500
103	12406	1.428814965845	500
103	12521	1.441333615367	500
103	12622	1.458992045115	500
103	12723	1.474173393324	500
103	12824	1.484729344178	500
103	12919	1.489037003045	500
103	13020	1.495858088557	500
103	13129	1.501093104611	500
103	13219	1.503078513116	500
103	13318	1.505134203353	500
103	13415	1.507731746077	500
103	13516	1.51127475239	500
103	13635	1.529700292285	500
103	13736	1.549221307223	500
103	13837	1.574138504561	500
103	13941	1.613016211993	500
103	14042	1.632046393744	500
103	14139	1.640965434177	500
103	14240	1.649963543069	500
104	690	0.1	0
104	690	0.2	0
104	690	0.3	0
104	3008	0.4	840000
104	4750	0.5	680000
104	5763	0.6	400000
104	6271	0.7	200000
104	7187	0.8	360000
104	8301	0.9	440000
104	9521	1	480000
104	10461	1.1	360000
104	10983	1.2	200000
104	11289	1.3	120000
104	11913	1.4	240000
104	13129	1.5	480000
104	13941	1.6	320000
105	690	0.354118088103	0.339046919006
105	798	0.355947361572	0.333969962112
105	836	0.356383644401	0.328603019682
105	956	0.359531215016	0.312923836886
105	1128	0.362172374417	0.306532906927
105	1204	0.363105090503	0.297392428778
105	1279	0.364564543558	0.267672832803
105	1386	0.367429996616	0.269654061595
105	1511	0.370704649555	0.271834782221
105	1693	0.373991807571	0.274876833176
105	1861	0.376559272195	0.255994445839
105	1948	0.377898724696	0.239264487236
105	2012	0.378851442126	0.215733433571
105	2045	0.379547725923	0.170287054938
105	2148	0.381256894577	0.152733348907
105	2269	0.384371546949	0.148420847763
105	2382	0.387006199202	0.132857068328
105	2492	0.389700851323	0.134041227536
105	2661	0.392352807031	0.124436000752
105	2737	0.393665525713	0.123891963268
105	2825	0.394964977524	0.090458369343
105	3008	0.401452132434	0.088091596752
105	3091	0.402631583923	0.082844259598
105	3270	0.405479048149	0.082004359598
105	3341	0.406718499473	0.065384753013
105	3372	0.407254784439	0.062903734794
105	3476	0.409203950792	0.051111233691
105	3657	0.412764053085	0.044538202462
105	3690	0.413400338308	0.040224472926
105	3829	0.415668955063	0.02945785711
105	3909	0.417054405969	0.022975552604
105	4019	0.421529056939	0.026266399873
105	4135	0.42851507781	0.0014613496
105	4242	0.443050373882	0.00232135011
105	4343	0.457217237172	0.002061350593
105	4438	0.463905907369	0.002381350831
105	4545	0.474572337655	0.002601351201
105	4644	0.484286674911	0.001661351532
105	4750	0.52281229655	0.002681352879
105	4851	0.533825739719	0.002121353262
105	4946	0.537952866448	0.001941353401
105	5045	0.543556494886	0.0017413536
105	5142	0.545803382695	0.002241353668
105	5243	0.55144771907	0.002641353878
105	5356	0.563175832099	0.001661354282
105	5451	0.566716810165	0.002201354408
105	5550	0.573166349011	0.001781354637
105	5655	0.582767271655	0.002141354966
105	5763	0.613398658299	0.002541356049
105	5869	0.635455452489	0.002521356818
105	5959	0.637223359452	0.002161356879
105	6066	0.654541241527	0.001361357487
105	6167	0.665083813449	0.001801357868
105	6271	0.713641977225	0.001761359578
105	6504	0.730871631802	0.003627003709
105	6535	0.73172793047	0.004282089185
105	6566	0.732124229164	0.004536989096
105	6661	0.734743634237	0.001801360323
105	6758	0.737841304848	0.002221360437
105	6875	0.745532473238	0.002441360699
105	6982	0.776639100692	0.001961361802
105	7083	0.794949076062	0.001901362457
105	7187	0.805240160083	0.001861362838
105	7282	0.809151773879	0.002041362974
105	7389	0.820468317197	0.002661363369
105	7486	0.829184078151	0.001681363682
105	7585	0.831956462829	0.001981363778
105	7684	0.839096610922	0.001901364033
105	7787	0.842438702864	0.001721364152
105	7888	0.850748067852	0.002001364456
105	7989	0.856641063539	0.002201364659
105	8096	0.879961386016	0.002381365493
105	8191	0.886636360891	0.001801365748
105	8301	0.90158680066	0.001701366276
105	8402	0.915121654358	0.002181366771
105	8497	0.918765871419	0.002701366893
105	8594	0.923809532242	0.001941367066
105	8701	0.933009944655	0.002341367401
105	8800	0.936464840648	0.001961367536
105	8907	0.94985353294	0.00168136802
105	9002	0.953586154994	0.00250136815
105	9109	0.978679115735	0.002121369044
105	9211	0.987421848047	0.002101369373
105	9305	0.9891843438	0.001861369431
105	9402	0.996678295781	0.001881369695
105	9521	1.016555210588	0.001981370424
105	9616	1.025037497004	0.001721370727
105	9723	1.040065489691	0.002121371272
105	9835	1.042714994952	0.002341371369
105	9926	1.044584282498	0.002610571436
105	10118	1.063895546729	0.00452717835
105	10149	1.064611859568	0.00419818819
105	10252	1.073053624792	0.002101372469
105	10357	1.086184647022	0.001661372949
105	10461	1.118695350398	0.002341374139
105	10574	1.168087005349	0.001861375943
105	10671	1.170501626549	0.003482893015
105	10774	1.179642898682	0.00220137637
105	10873	1.186230250382	0.001501376607
105	10983	1.221409933997	0.002641377901
105	11084	1.235724500082	0.00216137843
105	11185	1.258165721286	0.001921379257
105	11289	1.302281610892	0.002121380894
105	11402	1.349817008512	0.001561382656
105	11504	1.352391622759	0.004087321047
105	11594	1.353993659298	0.001921382809
105	11702	1.362486203427	0.001821383122
105	11803	1.369039149517	0.002121383359
105	11913	1.408538706604	0.002741384843
105	12008	1.413640498868	0.002501385034
105	12109	1.419456110924	0.002041385246
105	12276	1.424770982654	0.002634228043
105	12307	1.425487310967	0.003212637353
105	12406	1.428814965845	0.002181385604
105	12521	1.441333615367	0.001321386063
105	12622	1.458992045115	0.002241386716
105	12723	1.474173393324	0.001841387298
105	12824	1.484729344178	0.001641387692
105	12919	1.489037003045	0.002301387848
105	13020	1.495858088557	0.002121388108
105	13129	1.501093104611	0.001621388312
105	13219	1.503078513116	0.002522749888
105	13318	1.505134203353	0.001801388462
105	13415	1.507731746077	0.002041388555
105	13516	1.51127475239	0.001761388693
105	13635	1.529700292285	0.002061389373
105	13736	1.549221307223	0.002281390122
105	13837	1.574138504561	0.001481391055
105	13941	1.613016211993	0.001901392532
105	14042	1.632046393744	0.002561393256
105	14139	1.640965434177	0.002261393587
105	14240	1.649963543069	0.001961393925
106	690	0.354118088103	0
106	798	0.355947361572	1
106	836	0.356383644401	2
106	956	0.359531215016	3
106	1128	0.362172374417	4
106	1204	0.363105090503	5
106	1279	0.364564543558	6
106	1386	0.367429996616	7
106	1511	0.370704649555	8
106	1693	0.373991807571	9
106	1861	0.376559272195	10
106	1948	0.377898724696	11
106	2012	0.378851442126	12
106	2045	0.379547725923	13
106	2148	0.381256894577	14
106	2269	0.384371546949	15
106	2382	0.387006199202	16
106	2492	0.389700851323	17
106	2661	0.392352807031	18
106	2737	0.393665525713	19
106	2825	0.394964977524	20
106	3008	0.401452132434	21
106	3091	0.402631583923	22
106	3270	0.405479048149	23
106	3341	0.406718499473	24
106	3372	0.407254784439	25
106	3476	0.409203950792	26
106	3657	0.412764053085	27
106	3690	0.413400338308	28
106	3829	0.415668955063	29
106	3909	0.417054405969	30
106	4019	0.421529056939	31
106	4135	0.42851507781	32
106	4242	0.443050373882	33
106	4343	0.457217237172	34
106	4438	0.463905907369	35
106	4545	0.474572337655	36
106	4644	0.484286674911	37
106	4750	0.52281229655	38
106	4851	0.533825739719	39
106	4946	0.537952866448	40
106	5045	0.543556494886	41
106	5142	0.545803382695	42
106	5243	0.55144771907	43
106	5356	0.563175832099	44
106	5451	0.566716810165	45
106	5550	0.573166349011	46
106	5655	0.582767271655	47
106	5763	0.613398658299	48
106	5869	0.635455452489	49
106	5959	0.637223359452	50
106	6066	0.654541241527	51
106	6167	0.665083813449	52
106	6271	0.713641977225	53
106	6504	0.730871631802	54
106	6535	0.73172793047	55
106	6566	0.732124229164	56
106	6661	0.734743634237	57
106	6758	0.737841304848	58
106	6875	0.745532473238	59
106	6982	0.776639100692	60
106	7083	0.794949076062	61
106	7187	0.805240160083	62
106	7282	0.809151773879	63
106	7389	0.820468317197	64
106	7486	0.829184078151	65
106	7585	0.831956462829	66
106	7684	0.839096610922	67
106	7787	0.842438702864	68
106	7888	0.850748067852	69
106	7989	0.856641063539	70
106	8096	0.879961386016	71
106	8191	0.886636360891	72
106	8301	0.90158680066	73
106	8402	0.915121654358	74
106	8497	0.918765871419	75
106	8594	0.923809532242	76
106	8701	0.933009944655	77
106	8800	0.936464840648	78
106	8907	0.94985353294	79
106	9002	0.953586154994	80
106	9109	0.978679115735	81
106	9211	0.987421848047	82
106	9305	0.9891843438	83
106	9402	0.996678295781	84
106	9521	1.016555210588	85
106	9616	1.025037497004	86
106	9723	1.040065489691	87
106	9835	1.042714994952	88
106	9926	1.044584282498	89
106	10118	1.063895546729	90
106	10149	1.064611859568	91
106	10252	1.073053624792	92
106	10357	1.086184647022	93
106	10461	1.118695350398	94
106	10574	1.168087005349	95
106	10671	1.170501626549	96
106	10774	1.179642898682	97
106	10873	1.186230250382	98
106	10983	1.221409933997	99
106	11084	1.235724500082	100
106	11185	1.258165721286	101
106	11289	1.302281610892	102
106	11402	1.349817008512	103
106	11504	1.352391622759	104
106	11594	1.353993659298	105
106	11702	1.362486203427	106
106	11803	1.369039149517	107
106	11913	1.408538706604	108
106	12008	1.413640498868	109
106	12109	1.419456110924	110
106	12276	1.424770982654	111
106	12307	1.425487310967	112
106	12406	1.428814965845	113
106	12521	1.441333615367	114
106	12622	1.458992045115	115
106	12723	1.474173393324	116
106	12824	1.484729344178	117
106	12919	1.489037003045	118
106	13020	1.495858088557	119
106	13129	1.501093104611	120
106	13219	1.503078513116	121
106	13318	1.505134203353	122
106	13415	1.507731746077	123
106	13516	1.51127475239	124
106	13635	1.529700292285	125
106	13736	1.549221307223	126
106	13837	1.574138504561	127
106	13941	1.613016211993	128
106	14042	1.632046393744	129
106	14139	1.640965434177	130
106	14240	1.649963543069	131
107	10069	1.06194974045	549
108	10071	1.061949845523	549
vector 109 WirelessB.hostA.app[0] throughput:vector ETV
attr recordingmode vector
attr source throughput(packetReceived)
attr title throughput
attr unit bps
65	14271	1.685596103019	197392.1639429
66	14271	1.685596103019	197392.1639429
67	14271	1.685596103019	197392.1639429
68	14271	1.685596103019	197392.1639429
71	14271	1.685596103019	197392.1639429
74	14271	1.685596103019	197392.1639429
80	14271	0.4	6080
80	14271	0.5	0
80	14271	0.6	0
80	14271	0.7	0
80	14271	0.8	0
80	14271	0.9	0
80	14271	1	0
80	14271	1.1	0
80	14271	1.2	0
80	14271	1.3	0
80	14271	1.4	0
80	14271	1.5	0
80	14271	1.6	0
80	14271	1.685596103019	0
83	14271	0.4	6080
83	14271	0.5	0
83	14271	0.6	0
83	14271	0.7	0
83	14271	0.8	0
83	14271	0.9	0
83	14271	1	0
83	14271	1.1	0
83	14271	1.2	0
83	14271	1.3	0
83	14271	1.4	0
83	14271	1.5	0
83	14271	1.6	0
83	14271	1.685596103019	0
86	14271	0.4	4160
86	14271	0.5	0
86	14271	0.6	0
86	14271	0.7	0
86	14271	0.8	0
86	14271	0.9	0
86	14271	1	0
86	14271	1.1	0
86	14271	1.2	0
86	14271	1.3	0
86	14271	1.4	0
86	14271	1.5	0
86	14271	1.6	0
86	14271	1.685596103019	0
89	14271	0.4	4160
89	14271	0.5	0
89	14271	0.6	0
89	14271	0.7	0
89	14271	0.8	0
89	14271	0.9	0
89	14271	1	0
89	14271	1.1	0
89	14271	1.2	0
89	14271	1.3	0
89	14271	1.4	0
89	14271	1.5	0
89	14271	1.6	0
89	14271	1.685596103019	0
104	14271	1.685596103019	186924.3976732
109	14271	0.1	0
109	14271	0.2	0
109	14271	0.3	0
109	14271	0.4	0
109	14271	0.5	0
109	14271	0.6	0
109	14271	0.7	0
109	14271	0.8	0
109	14271	0.9	0
109	14271	1	0
109	14271	1.1	0
109	14271	1.2	0
109	14271	1.3	0
109	14271	1.4	0
109	14271	1.5	0
109	14271	1.6	0
109	14271	1.685596103019	0

